
     RDKit          3D

 32 35  0  0  0  0  0  0  0  0999 V2000
    0.3171   -2.6336   -2.9611 C   0  0  0  0  0  0  0  0  0  0  0  0
    1.2413   -1.8355   -2.2523 O   0  0  0  0  0  0  0  0  0  0  0  0
    0.7503   -0.8912   -1.3587 C   0  0  0  0  0  0  0  0  0  0  0  0
    1.6250   -0.0411   -0.6847 C   0  0  0  0  0  0  0  0  0  0  0  0
    2.9785   -0.1893   -0.9514 O   0  0  0  0  0  0  0  0  0  0  0  0
    3.8408    0.9293   -0.9473 C   0  0  0  0  0  0  0  0  0  0  0  0
    4.7586    0.9498    0.2558 C   0  0  0  0  0  0  0  0  0  0  0  0
    5.3201   -0.4677    0.3704 C   0  0  0  0  0  0  0  0  0  0  0  0
    5.9044   -0.7923   -0.9164 N   0  0  0  0  0  0  0  0  0  0  0  0
    5.8659   -2.1691   -1.3447 C   0  0  0  0  0  0  0  0  0  0  0  0
    6.5080    0.2046   -1.7568 C   0  0  0  0  0  0  0  0  0  0  0  0
    7.1150   -0.1848   -3.0006 C   0  0  0  0  0  0  0  0  0  0  0  0
    7.6102   -0.5233   -4.0136 N   0  0  0  0  0  0  0  0  0  0  0  0
    6.4882    1.4533   -1.3620 N   0  0  0  0  0  0  0  0  0  0  0  0
    5.8806    1.7519   -0.1429 O   0  0  0  0  0  0  0  0  0  0  0  0
    1.1140    0.8833    0.1931 C   0  0  0  0  0  0  0  0  0  0  0  0
   -0.2285    1.0207    0.4491 C   0  0  0  0  0  0  0  0  0  0  0  0
   -0.7458    1.9133    1.2991 N   0  0  0  0  0  0  0  0  0  0  0  0
   -2.0634    2.0419    1.5447 C   0  0  0  0  0  0  0  0  0  0  0  0
   -2.8947    1.2200    0.8916 N   0  0  0  0  0  0  0  0  0  0  0  0
   -2.4523    0.2973    0.0221 C   0  0  0  0  0  0  0  0  0  0  0  0
   -3.3166   -0.5873   -0.6839 N   0  0  0  0  0  0  0  0  0  0  0  0
   -4.7117   -0.2634   -0.6816 C   0  0  0  0  0  0  0  0  0  0  0  0
   -5.6495   -1.2848   -0.8234 C   0  0  0  0  0  0  0  0  0  0  0  0
   -7.0069   -1.0051   -0.8253 C   0  0  0  0  0  0  0  0  0  0  0  0
   -8.1953   -2.2624   -1.0007 Cl  0  0  0  0  0  0  0  0  0  0  0  0
   -7.4094    0.3101   -0.6833 C   0  0  0  0  0  0  0  0  0  0  0  0
   -9.1094    0.7122   -0.6797 Cl  0  0  0  0  0  0  0  0  0  0  0  0
   -6.4954    1.3504   -0.5399 C   0  0  0  0  0  0  0  0  0  0  0  0
   -5.1321    1.0586   -0.5393 C   0  0  0  0  0  0  0  0  0  0  0  0
   -1.0959    0.1762   -0.2207 C   0  0  0  0  0  0  0  0  0  0  0  0
   -0.6030   -0.7616   -1.1086 C   0  0  0  0  0  0  0  0  0  0  0  0
  1  2  1  0
  2  3  1  0
  3  4  1  0
  4  5  1  0
  5  6  1  0
  6  7  1  0
  7  8  1  0
  8  9  1  0
  9 10  1  0
  9 11  1  0
 11 12  1  0
 12 13  3  0
 11 14  2  0
 14 15  1  0
  4 16  2  0
 16 17  1  0
 17 18  2  0
 18 19  1  0
 19 20  2  0
 20 21  1  0
 21 22  1  0
 22 23  1  0
 23 24  2  0
 24 25  1  0
 25 26  1  0
 25 27  2  0
 27 28  1  0
 27 29  1  0
 29 30  2  0
 21 31  2  0
 31 32  1  0
 32  3  2  0
 15  7  1  0
 31 17  1  0
 30 23  1  0
M  END
>  <Smiles>  (1) 
COc1c(OCC2CN(C)C(C#N)=NO2)cc2ncnc(Nc3cc(Cl)c(Cl)cc3)c2c1

>  <GEO>  (1) 
-3.09 2.55 1.88 0.81 -0.18 0.25 -2.67

>  <target1>  (1) 
P00533_WT

>  <target2>  (1) 
P00533_T790M

$$$$
