
     RDKit          3D

 34 37  0  0  0  0  0  0  0  0999 V2000
   -0.3086   -6.7743    1.2450 C   0  0  0  0  0  0  0  0  0  0  0  0
    0.5449   -5.7861    1.0327 C   0  0  0  0  0  0  0  0  0  0  0  0
    0.0705   -4.4357    0.7521 C   0  0  0  0  0  0  0  0  0  0  0  0
   -1.1537   -4.1395    0.7296 O   0  0  0  0  0  0  0  0  0  0  0  0
    1.0286   -3.4265    0.4960 N   0  0  0  0  0  0  0  0  0  0  0  0
    0.7179   -2.0632    0.2207 C   0  0  0  0  0  0  0  0  0  0  0  0
    1.7554   -1.2162   -0.1059 C   0  0  0  0  0  0  0  0  0  0  0  0
    3.0868   -1.6379   -0.1787 O   0  0  0  0  0  0  0  0  0  0  0  0
    4.1167   -0.7634   -0.6128 C   0  0  0  0  0  0  0  0  0  0  0  0
    5.4052   -1.5293   -0.7082 C   0  0  0  0  0  0  0  0  0  0  0  0
    5.8333   -1.9392    0.6801 C   0  0  0  0  0  0  0  0  0  0  0  0
    7.1099   -2.6018    0.7177 N   0  0  0  0  0  0  0  0  0  0  0  0
    7.0780   -3.9047    0.0904 C   0  0  0  0  0  0  0  0  0  0  0  0
    8.4135   -4.1815   -0.6123 C   0  0  0  0  0  0  0  0  0  0  0  0
    8.6617   -3.2752   -1.6273 O   0  0  0  0  0  0  0  0  0  0  0  0
    8.1091   -2.0132   -1.3743 C   0  0  0  0  0  0  0  0  0  0  0  0
    8.1408   -1.8181    0.1188 C   0  0  0  0  0  0  0  0  0  0  0  0
    1.5036    0.1080   -0.3784 C   0  0  0  0  0  0  0  0  0  0  0  0
    0.2347    0.6033   -0.3314 C   0  0  0  0  0  0  0  0  0  0  0  0
    0.0566    1.9041   -0.6082 N   0  0  0  0  0  0  0  0  0  0  0  0
   -1.1972    2.3828   -0.5597 C   0  0  0  0  0  0  0  0  0  0  0  0
   -2.2638    1.6301   -0.2511 N   0  0  0  0  0  0  0  0  0  0  0  0
   -2.0683    0.3306    0.0233 C   0  0  0  0  0  0  0  0  0  0  0  0
   -3.2055   -0.4630    0.3469 N   0  0  0  0  0  0  0  0  0  0  0  0
   -4.4372    0.1854    0.6828 C   0  0  0  0  0  0  0  0  0  0  0  0
   -5.5952   -0.5495    0.4442 C   0  0  0  0  0  0  0  0  0  0  0  0
   -6.8167    0.0252    0.7502 C   0  0  0  0  0  0  0  0  0  0  0  0
   -8.3351   -0.8398    0.4762 Cl  0  0  0  0  0  0  0  0  0  0  0  0
   -6.8557    1.3084    1.2829 C   0  0  0  0  0  0  0  0  0  0  0  0
   -8.0697    1.8346    1.5685 F   0  0  0  0  0  0  0  0  0  0  0  0
   -5.6968    1.9994    1.5032 C   0  0  0  0  0  0  0  0  0  0  0  0
   -4.4631    1.4423    1.2035 C   0  0  0  0  0  0  0  0  0  0  0  0
   -0.8089   -0.2513   -0.0025 C   0  0  0  0  0  0  0  0  0  0  0  0
   -0.5977   -1.5853    0.2777 C   0  0  0  0  0  0  0  0  0  0  0  0
  1  2  2  0
  2  3  1  0
  3  4  2  0
  3  5  1  0
  5  6  1  0
  6  7  1  0
  7  8  1  0
  8  9  1  0
  9 10  1  0
 10 11  1  0
 11 12  1  0
 12 13  1  0
 13 14  1  0
 14 15  1  0
 15 16  1  0
 16 17  1  0
  7 18  2  0
 18 19  1  0
 19 20  2  0
 20 21  1  0
 21 22  2  0
 22 23  1  0
 23 24  1  0
 24 25  1  0
 25 26  2  0
 26 27  1  0
 27 28  1  0
 27 29  2  0
 29 30  1  0
 29 31  1  0
 31 32  2  0
 23 33  2  0
 33 34  1  0
 34  6  2  0
 17 12  1  0
 33 19  1  0
 32 25  1  0
M  END
>  <Smiles>  (1) 
C=CC(=O)Nc1c(OCCCN2CCOCC2)cc2ncnc(Nc3cc(Cl)c(F)cc3)c2c1

>  <GEO>  (1) 
0.03 -3.13 -3.06 3.06 -3.05 -1.17 -3.07 -1.19 -0.26 2.69

>  <target1>  (1) 
P00533_WT

>  <target2>  (1) 
P00533_T790M

$$$$
