
     RDKit          3D

 37 41  0  0  0  0  0  0  0  0999 V2000
    4.5640   -1.9342    3.5148 C   0  0  0  0  0  0  0  0  0  0  0  0
    3.8109   -2.0613    2.4097 C   0  0  0  0  0  0  0  0  0  0  0  0
    3.3671   -0.8589    1.6902 C   0  0  0  0  0  0  0  0  0  0  0  0
    3.1234   -0.8519    0.4602 O   0  0  0  0  0  0  0  0  0  0  0  0
    3.2310    0.3234    2.5046 N   0  0  0  0  0  0  0  0  0  0  0  0
    2.8781    1.5423    1.8541 C   0  0  0  0  0  0  0  0  0  0  0  0
    2.7853    1.6734    0.4913 C   0  0  0  0  0  0  0  0  0  0  0  0
    2.4430    2.8369   -0.1647 C   0  0  0  0  0  0  0  0  0  0  0  0
    2.3837    2.8026   -1.5710 N   0  0  0  0  0  0  0  0  0  0  0  0
    2.5368    1.6324   -2.3622 C   0  0  0  0  0  0  0  0  0  0  0  0
    2.7476    0.4157   -1.8145 N   0  0  0  0  0  0  0  0  0  0  0  0
    2.8914   -0.7038   -2.5836 C   0  0  0  0  0  0  0  0  0  0  0  0
    2.8136   -0.5566   -3.9703 C   0  0  0  0  0  0  0  0  0  0  0  0
    2.9863   -1.9430   -5.0362 Cl  0  0  0  0  0  0  0  0  0  0  0  0
    2.5985    0.6832   -4.5311 C   0  0  0  0  0  0  0  0  0  0  0  0
    2.5156    0.8185   -5.9811 C   0  0  0  0  0  0  0  0  0  0  0  0
    3.0691    1.8068   -6.7592 C   0  0  0  0  0  0  0  0  0  0  0  0
    3.8255    2.9067   -6.4121 C   0  0  0  0  0  0  0  0  0  0  0  0
    4.2442    3.7353   -7.4444 C   0  0  0  0  0  0  0  0  0  0  0  0
    3.9061    3.4503   -8.7508 C   0  0  0  0  0  0  0  0  0  0  0  0
    3.1398    2.3225   -9.0281 C   0  0  0  0  0  0  0  0  0  0  0  0
    2.7257    1.5054   -8.0224 N   0  0  0  0  0  0  0  0  0  0  0  0
    2.0075    0.4146   -8.0861 N   0  0  0  0  0  0  0  0  0  0  0  0
    1.8577   -0.0379   -6.8386 C   0  0  0  0  0  0  0  0  0  0  0  0
    2.4666    1.7409   -3.7166 N   0  0  0  0  0  0  0  0  0  0  0  0
    2.1736    3.9545    0.6019 C   0  0  0  0  0  0  0  0  0  0  0  0
    1.8305    5.1223   -0.0635 O   0  0  0  0  0  0  0  0  0  0  0  0
    1.5731    6.3006    0.7097 C   0  0  0  0  0  0  0  0  0  0  0  0
    2.2537    3.8724    1.9798 C   0  0  0  0  0  0  0  0  0  0  0  0
    2.6000    2.6869    2.6031 C   0  0  0  0  0  0  0  0  0  0  0  0
    2.6472    2.6897    4.0256 N   0  0  0  0  0  0  0  0  0  0  0  0
    1.4757    2.5626    4.8646 C   0  0  0  0  0  0  0  0  0  0  0  0
    1.5232    3.5771    6.0098 C   0  0  0  0  0  0  0  0  0  0  0  0
    2.5960    4.4935    5.7575 N   0  0  0  0  0  0  0  0  0  0  0  0
    2.5990    5.6716    6.5735 C   0  0  0  0  0  0  0  0  0  0  0  0
    3.9075    3.8724    5.7055 C   0  0  0  0  0  0  0  0  0  0  0  0
    3.9856    2.8317    4.6158 C   0  0  0  0  0  0  0  0  0  0  0  0
  1  2  2  0
  2  3  1  0
  3  4  2  0
  3  5  1  0
  5  6  1  0
  6  7  1  0
  7  8  2  0
  8  9  1  0
  9 10  1  0
 10 11  1  0
 11 12  2  0
 12 13  1  0
 13 14  1  0
 13 15  2  0
 15 16  1  0
 16 17  2  0
 17 18  1  0
 18 19  2  0
 19 20  1  0
 20 21  2  0
 21 22  1  0
 22 23  1  0
 23 24  2  0
 15 25  1  0
  8 26  1  0
 26 27  1  0
 27 28  1  0
 26 29  2  0
 29 30  1  0
 30 31  1  0
 31 32  1  0
 32 33  1  0
 33 34  1  0
 34 35  1  0
 34 36  1  0
 36 37  1  0
 30  6  2  0
 37 31  1  0
 25 10  2  0
 24 16  1  0
 22 17  1  0
M  END
>  <Smiles>  (1) 
C=CC(=O)Nc1cc(Nc2ncc(Cl)c(-c3c4ccccn4nc3)n2)c(OC)cc1N1CCN(C)CC1

>  <GEO>  (1) 
2.66 3.08 -0.11 0.10 0.01 -2.41 -3.12 1.41

>  <target1>  (1) 
P00533_WT

>  <target2>  (1) 
P00533_T790M

$$$$
