
     RDKit          3D

 38 42  0  0  0  0  0  0  0  0999 V2000
   -2.1353   -4.2388   -0.9743 C   0  0  0  0  0  0  0  0  0  0  0  0
   -1.1339   -3.4309   -0.4109 O   0  0  0  0  0  0  0  0  0  0  0  0
   -1.2764   -2.0388   -0.2922 C   0  0  0  0  0  0  0  0  0  0  0  0
   -0.1983   -1.2625    0.0642 C   0  0  0  0  0  0  0  0  0  0  0  0
    1.0499   -1.8221    0.3181 O   0  0  0  0  0  0  0  0  0  0  0  0
    2.2000   -1.0953    0.5792 C   0  0  0  0  0  0  0  0  0  0  0  0
    3.4388   -1.8523    0.7581 C   0  0  0  0  0  0  0  0  0  0  0  0
    4.5339   -1.8975   -0.0607 N   0  0  0  0  0  0  0  0  0  0  0  0
    5.4067   -2.7479    0.5593 C   0  0  0  0  0  0  0  0  0  0  0  0
    6.7584   -3.1646    0.1083 C   0  0  0  0  0  0  0  0  0  0  0  0
    6.5506   -4.3845   -1.2019 S   0  0  0  0  0  0  0  0  0  0  0  0
    7.9022   -5.0540   -1.3280 O   0  0  0  0  0  0  0  0  0  0  0  0
    5.5403   -5.4137   -0.8282 O   0  0  0  0  0  0  0  0  0  0  0  0
    6.1510   -3.5057   -2.6327 C   0  0  0  0  0  0  0  0  0  0  0  0
    7.0614   -2.7516   -3.2605 N   0  0  0  0  0  0  0  0  0  0  0  0
    6.8006   -2.0443   -4.3835 C   0  0  0  0  0  0  0  0  0  0  0  0
    5.5335   -2.0999   -4.9135 C   0  0  0  0  0  0  0  0  0  0  0  0
    4.5574   -2.8497   -4.3223 C   0  0  0  0  0  0  0  0  0  0  0  0
    4.8790   -3.5521   -3.1771 C   0  0  0  0  0  0  0  0  0  0  0  0
    4.8395   -3.1889    1.7106 N   0  0  0  0  0  0  0  0  0  0  0  0
    3.6853   -2.6334    1.7805 O   0  0  0  0  0  0  0  0  0  0  0  0
   -0.3234    0.1300    0.1853 C   0  0  0  0  0  0  0  0  0  0  0  0
   -1.5880    0.6633   -0.0761 C   0  0  0  0  0  0  0  0  0  0  0  0
   -1.7087    1.9846    0.0297 N   0  0  0  0  0  0  0  0  0  0  0  0
   -2.8999    2.6058   -0.2109 C   0  0  0  0  0  0  0  0  0  0  0  0
   -3.9747    1.8413   -0.5644 N   0  0  0  0  0  0  0  0  0  0  0  0
   -3.8531    0.5111   -0.6701 C   0  0  0  0  0  0  0  0  0  0  0  0
   -5.0293   -0.2280   -1.0389 N   0  0  0  0  0  0  0  0  0  0  0  0
   -6.1429    0.6145   -1.4223 C   0  0  0  0  0  0  0  0  0  0  0  0
   -7.4158    0.1077   -1.1735 C   0  0  0  0  0  0  0  0  0  0  0  0
   -8.5241    0.8977   -1.5155 C   0  0  0  0  0  0  0  0  0  0  0  0
  -10.1248    0.2455   -1.1951 Cl  0  0  0  0  0  0  0  0  0  0  0  0
   -8.3376    2.1334   -2.0795 C   0  0  0  0  0  0  0  0  0  0  0  0
   -9.7778    3.0584   -2.4763 Cl  0  0  0  0  0  0  0  0  0  0  0  0
   -7.0585    2.6567   -2.3368 C   0  0  0  0  0  0  0  0  0  0  0  0
   -5.9694    1.8405   -1.9816 C   0  0  0  0  0  0  0  0  0  0  0  0
   -2.6617   -0.1356   -0.4334 C   0  0  0  0  0  0  0  0  0  0  0  0
   -2.5323   -1.5226   -0.5520 C   0  0  0  0  0  0  0  0  0  0  0  0
  1  2  1  0
  2  3  1  0
  3  4  1  0
  4  5  1  0
  5  6  1  0
  6  7  1  0
  7  8  2  0
  8  9  1  0
  9 10  1  0
 10 11  1  0
 11 12  2  0
 11 13  2  0
 11 14  1  0
 14 15  1  0
 15 16  2  0
 16 17  1  0
 17 18  2  0
 18 19  1  0
  9 20  2  0
 20 21  1  0
  4 22  2  0
 22 23  1  0
 23 24  2  0
 24 25  1  0
 25 26  2  0
 26 27  1  0
 27 28  1  0
 28 29  1  0
 29 30  2  0
 30 31  1  0
 31 32  1  0
 31 33  2  0
 33 34  1  0
 33 35  1  0
 35 36  2  0
 27 37  2  0
 37 38  1  0
 38  3  2  0
 21  7  1  0
 37 23  1  0
 19 14  2  0
 36 29  1  0
M  END
>  <Smiles>  (1) 
COc1c(OCc2nc(CS(=O)(=O)c3ncccc3)no2)cc2ncnc(Nc3cc(Cl)c(Cl)cc3)c2c1

>  <GEO>  (1) 
-2.96 3.05 -3.09 1.94 -1.34 -2.86 1.24 0.14 -2.62

>  <target1>  (1) 
P00533_WT

>  <target2>  (1) 
P00533_T790M

$$$$
