
     RDKit          3D

 30 32  0  0  0  0  0  0  0  0999 V2000
    2.3310   -2.4561   -4.1207 C   0  0  0  0  0  0  0  0  0  0  0  0
    2.2731   -1.5438   -3.0473 O   0  0  0  0  0  0  0  0  0  0  0  0
    1.1650   -1.5086   -2.2201 C   0  0  0  0  0  0  0  0  0  0  0  0
    0.0905   -2.3543   -2.4742 C   0  0  0  0  0  0  0  0  0  0  0  0
   -1.0078   -2.3306   -1.6666 C   0  0  0  0  0  0  0  0  0  0  0  0
   -1.0460   -1.4602   -0.5947 C   0  0  0  0  0  0  0  0  0  0  0  0
    0.0174   -0.6104   -0.3290 C   0  0  0  0  0  0  0  0  0  0  0  0
    1.1311   -0.6372   -1.1502 C   0  0  0  0  0  0  0  0  0  0  0  0
    2.2641    0.2034   -0.9408 N   0  0  0  0  0  0  0  0  0  0  0  0
    2.3334    1.0981    0.1708 C   0  0  0  0  0  0  0  0  0  0  0  0
    1.4333    1.1835    1.0433 O   0  0  0  0  0  0  0  0  0  0  0  0
    3.4962    1.9402    0.2902 C   0  0  0  0  0  0  0  0  0  0  0  0
    4.4798    2.6642    0.4103 C   0  0  0  0  0  0  0  0  0  0  0  0
    5.6642    3.5168    0.5332 C   0  0  0  0  0  0  0  0  0  0  0  0
    5.4859    4.6878   -0.3015 N   0  0  0  0  0  0  0  0  0  0  0  0
    5.4779    4.2378   -1.6796 C   0  0  0  0  0  0  0  0  0  0  0  0
    4.1780    5.2386   -0.0078 C   0  0  0  0  0  0  0  0  0  0  0  0
   -2.1776   -1.4855    0.1954 C   0  0  0  0  0  0  0  0  0  0  0  0
   -2.3035   -0.6031    1.3298 N   0  0  0  0  0  0  0  0  0  0  0  0
   -3.5773   -0.4753    1.9955 C   0  0  0  0  0  0  0  0  0  0  0  0
   -4.7613   -0.7970    1.3947 C   0  0  0  0  0  0  0  0  0  0  0  0
   -5.9258   -0.6217    2.1199 C   0  0  0  0  0  0  0  0  0  0  0  0
   -7.4719   -1.0188    1.4019 Cl  0  0  0  0  0  0  0  0  0  0  0  0
   -5.9365   -0.1399    3.4112 C   0  0  0  0  0  0  0  0  0  0  0  0
   -7.1008    0.0316    4.1168 F   0  0  0  0  0  0  0  0  0  0  0  0
   -4.7345    0.1825    4.0105 C   0  0  0  0  0  0  0  0  0  0  0  0
   -3.5919    0.0072    3.2925 C   0  0  0  0  0  0  0  0  0  0  0  0
   -3.1929   -2.3443   -0.0987 N   0  0  0  0  0  0  0  0  0  0  0  0
   -3.1231   -3.1784   -1.1515 C   0  0  0  0  0  0  0  0  0  0  0  0
   -2.0232   -3.1672   -1.9358 N   0  0  0  0  0  0  0  0  0  0  0  0
  1  2  1  0
  2  3  1  0
  3  4  2  0
  4  5  1  0
  5  6  1  0
  6  7  1  0
  7  8  2  0
  8  9  1  0
  9 10  1  0
 10 11  2  0
 10 12  1  0
 12 13  3  0
 13 14  1  0
 14 15  1  0
 15 16  1  0
 15 17  1  0
  6 18  2  0
 18 19  1  0
 19 20  1  0
 20 21  2  0
 21 22  1  0
 22 23  1  0
 22 24  2  0
 24 25  1  0
 24 26  1  0
 26 27  2  0
 18 28  1  0
 28 29  2  0
 29 30  1  0
  8  3  1  0
 27 20  1  0
 30  5  2  0
M  END
>  <Smiles>  (1) 
COc1cc2c(cc1NC(=O)C#CCN(C)C)c(Nc1cc(Cl)c(F)cc1)ncn2

>  <GEO>  (1) 
-0.03 0.04 0.03 -3.04 2.97 1.52 -1.16 2.95 -0.37

>  <target1>  (1) 
P00533_WT

>  <target2>  (1) 
P00533_T790M

$$$$
