
     RDKit          3D

 34 38  0  0  0  0  0  0  0  0999 V2000
    0.2877   -3.3653   -1.6771 C   0  0  0  0  0  0  0  0  0  0  0  0
    1.1212   -2.5159   -0.8933 O   0  0  0  0  0  0  0  0  0  0  0  0
    0.5197   -1.4178   -0.2964 C   0  0  0  0  0  0  0  0  0  0  0  0
   -0.8507   -1.2494   -0.3604 C   0  0  0  0  0  0  0  0  0  0  0  0
   -1.4489   -0.1484    0.2387 C   0  0  0  0  0  0  0  0  0  0  0  0
   -0.7250    0.8129    0.9134 C   0  0  0  0  0  0  0  0  0  0  0  0
    0.6479    0.6315    0.9698 C   0  0  0  0  0  0  0  0  0  0  0  0
    1.2576   -0.4644    0.3752 C   0  0  0  0  0  0  0  0  0  0  0  0
    2.6543   -0.6323    0.4427 O   0  0  0  0  0  0  0  0  0  0  0  0
    3.4861    0.2372    1.1434 C   0  0  0  0  0  0  0  0  0  0  0  0
    3.7695    1.4996    0.3590 C   0  0  0  0  0  0  0  0  0  0  0  0
    4.2587    2.5819    1.2936 C   0  0  0  0  0  0  0  0  0  0  0  0
    3.5606    3.8154    1.0971 N   0  0  0  0  0  0  0  0  0  0  0  0
    4.0615    4.6260    0.0155 C   0  0  0  0  0  0  0  0  0  0  0  0
    3.2962    4.4396   -1.2708 C   0  0  0  0  0  0  0  0  0  0  0  0
    1.9263    4.4050   -1.1013 O   0  0  0  0  0  0  0  0  0  0  0  0
    1.5753    4.7902    0.1796 C   0  0  0  0  0  0  0  0  0  0  0  0
    2.1311    3.7162    1.1215 C   0  0  0  0  0  0  0  0  0  0  0  0
    1.6968    2.3908    0.5356 C   0  0  0  0  0  0  0  0  0  0  0  0
    2.6473    1.9120   -0.3646 O   0  0  0  0  0  0  0  0  0  0  0  0
   -1.3370    1.8679    1.4828 N   0  0  0  0  0  0  0  0  0  0  0  0
   -2.6794    2.0318    1.4194 C   0  0  0  0  0  0  0  0  0  0  0  0
   -3.4000    1.1044    0.7658 N   0  0  0  0  0  0  0  0  0  0  0  0
   -2.8358    0.0305    0.1791 C   0  0  0  0  0  0  0  0  0  0  0  0
   -3.6492   -0.9362   -0.5097 N   0  0  0  0  0  0  0  0  0  0  0  0
   -3.3444   -2.3237   -0.4175 C   0  0  0  0  0  0  0  0  0  0  0  0
   -3.6491   -3.2092   -1.4458 C   0  0  0  0  0  0  0  0  0  0  0  0
   -3.3466   -4.5682   -1.3469 C   0  0  0  0  0  0  0  0  0  0  0  0
   -3.7497   -5.6504   -2.6705 Cl  0  0  0  0  0  0  0  0  0  0  0  0
   -2.7336   -5.0102   -0.1938 C   0  0  0  0  0  0  0  0  0  0  0  0
   -2.3122   -6.8763   -0.0447 Br  0  0  0  0  0  0  0  0  0  0  0  0
   -2.4313   -4.1177    0.8322 C   0  0  0  0  0  0  0  0  0  0  0  0
   -2.7318   -2.7655    0.7346 C   0  0  0  0  0  0  0  0  0  0  0  0
   -2.4199   -1.9410    1.7537 F   0  0  0  0  0  0  0  0  0  0  0  0
  1  2  1  0
  2  3  1  0
  3  4  2  0
  4  5  1  0
  5  6  1  0
  6  7  1  0
  7  8  2  0
  8  9  1  0
  9 10  1  0
 10 11  1  0
 11 12  1  0
 12 13  1  0
 13 14  1  0
 14 15  1  0
 15 16  1  0
 16 17  1  0
 17 18  1  0
 18 19  1  0
 19 20  1  0
  6 21  2  0
 21 22  1  0
 22 23  2  0
 23 24  1  0
 24 25  1  0
 25 26  1  0
 26 27  2  0
 27 28  1  0
 28 29  1  0
 28 30  2  0
 30 31  1  0
 30 32  1  0
 32 33  2  0
 33 34  1  0
  8  3  1  0
 20 11  1  0
 33 26  1  0
 24  5  2  0
 18 13  1  0
M  END
>  <Smiles>  (1) 
COc1cc2c(cc1OCC1CN3CCOCC3CO1)ncnc2Nc1cc(Cl)c(Br)cc1F

>  <GEO>  (1) 
0.11 0.05 -1.39 2.81 -2.47 -2.63

>  <target1>  (1) 
P00533_WT

>  <target2>  (1) 
P00533_T790M

$$$$
