
     RDKit          3D

 38 42  0  0  0  0  0  0  0  0999 V2000
    2.8801   -4.6163    0.4057 C   0  0  0  0  0  0  0  0  0  0  0  0
    1.6911   -3.9393    0.6745 O   0  0  0  0  0  0  0  0  0  0  0  0
    1.5993   -2.5390    0.6774 C   0  0  0  0  0  0  0  0  0  0  0  0
    0.3990   -1.9479    0.9889 C   0  0  0  0  0  0  0  0  0  0  0  0
   -0.6675   -2.7492    1.2861 O   0  0  0  0  0  0  0  0  0  0  0  0
   -1.9166   -2.3451    1.7650 C   0  0  0  0  0  0  0  0  0  0  0  0
   -2.7913   -3.5323    2.1547 C   0  0  0  0  0  0  0  0  0  0  0  0
   -4.1813   -2.9904    2.3430 C   0  0  0  0  0  0  0  0  0  0  0  0
   -5.1152   -4.0119    2.6988 N   0  0  0  0  0  0  0  0  0  0  0  0
   -6.1998   -3.4406    3.4813 C   0  0  0  0  0  0  0  0  0  0  0  0
   -7.2412   -4.4661    3.7007 C   0  0  0  0  0  0  0  0  0  0  0  0
   -7.4417   -5.1278    4.8278 C   0  0  0  0  0  0  0  0  0  0  0  0
   -6.6224   -4.8401    6.0367 C   0  0  0  0  0  0  0  0  0  0  0  0
   -7.5617   -4.6104    7.1979 C   0  0  0  0  0  0  0  0  0  0  0  0
   -8.9832   -4.9981    6.9078 C   0  0  0  0  0  0  0  0  0  0  0  0
   -9.0970   -6.3307    6.2073 C   0  0  0  0  0  0  0  0  0  0  0  0
   -8.5221   -6.1644    4.8156 C   0  0  0  0  0  0  0  0  0  0  0  0
   -4.5677   -5.1660    3.3367 C   0  0  0  0  0  0  0  0  0  0  0  0
   -3.3354   -4.8781    4.1145 C   0  0  0  0  0  0  0  0  0  0  0  0
   -3.1283   -5.3591    5.2709 O   0  0  0  0  0  0  0  0  0  0  0  0
   -2.3772   -4.0148    3.4811 N   0  0  0  0  0  0  0  0  0  0  0  0
    0.3600   -0.5617    0.9779 C   0  0  0  0  0  0  0  0  0  0  0  0
    1.4780    0.1570    0.6681 C   0  0  0  0  0  0  0  0  0  0  0  0
    1.4380    1.4877    0.6583 N   0  0  0  0  0  0  0  0  0  0  0  0
    2.4995    2.2602    0.3628 C   0  0  0  0  0  0  0  0  0  0  0  0
    3.6510    1.6300    0.0650 N   0  0  0  0  0  0  0  0  0  0  0  0
    3.7891    0.2942    0.0487 C   0  0  0  0  0  0  0  0  0  0  0  0
    5.0100   -0.3653   -0.2672 N   0  0  0  0  0  0  0  0  0  0  0  0
    6.2033    0.4119   -0.2884 C   0  0  0  0  0  0  0  0  0  0  0  0
    7.2943    0.0547   -1.0340 C   0  0  0  0  0  0  0  0  0  0  0  0
    8.4714    0.7906   -1.0759 C   0  0  0  0  0  0  0  0  0  0  0  0
    9.8473    0.3018   -2.0422 Cl  0  0  0  0  0  0  0  0  0  0  0  0
    8.5189    1.9402   -0.3160 C   0  0  0  0  0  0  0  0  0  0  0  0
    9.9664    2.9321   -0.3084 Cl  0  0  0  0  0  0  0  0  0  0  0  0
    7.4460    2.3526    0.4588 C   0  0  0  0  0  0  0  0  0  0  0  0
    6.2889    1.5739    0.4624 C   0  0  0  0  0  0  0  0  0  0  0  0
    2.6755   -0.4591    0.3578 C   0  0  0  0  0  0  0  0  0  0  0  0
    2.7418   -1.8307    0.3613 C   0  0  0  0  0  0  0  0  0  0  0  0
  1  2  1  0
  2  3  1  0
  3  4  1  0
  4  5  1  0
  5  6  1  0
  6  7  1  0
  7  8  1  0
  8  9  1  0
  9 10  1  0
 10 11  1  0
 11 12  2  0
 12 13  1  0
 13 14  1  0
 14 15  1  0
 15 16  1  0
 16 17  1  0
  9 18  1  0
 18 19  1  0
 19 20  2  0
 19 21  1  0
  4 22  2  0
 22 23  1  0
 23 24  2  0
 24 25  1  0
 25 26  2  0
 26 27  1  0
 27 28  1  0
 28 29  1  0
 29 30  2  0
 30 31  1  0
 31 32  1  0
 31 33  2  0
 33 34  1  0
 33 35  1  0
 35 36  2  0
 27 37  2  0
 37 38  1  0
 38  3  2  0
 21  7  1  0
 37 23  1  0
 17 12  1  0
 36 29  1  0
M  END
>  <Smiles>  (1) 
COc1c(OCC2CN(CC=C3CCCCC3)CC(=O)N2)cc2ncnc(Nc3cc(Cl)c(Cl)cc3)c2c1

>  <GEO>  (1) 
-3.11 3.01 -3.01 -2.92 3.02 1.81 0.04 0.24 -2.70

>  <target1>  (1) 
P00533_WT

>  <target2>  (1) 
P00533_T790M

$$$$
