
     RDKit          3D

 31 34  0  0  0  0  0  0  0  0999 V2000
    0.6131   -2.9411    2.3545 C   0  0  0  0  0  0  0  0  0  0  0  0
    1.6012   -2.3018    1.5685 O   0  0  0  0  0  0  0  0  0  0  0  0
    1.2015   -1.3216    0.6887 C   0  0  0  0  0  0  0  0  0  0  0  0
    2.1190   -0.5988   -0.0641 C   0  0  0  0  0  0  0  0  0  0  0  0
    3.4546   -0.9221    0.1229 O   0  0  0  0  0  0  0  0  0  0  0  0
    4.4633   -0.2156   -0.5377 C   0  0  0  0  0  0  0  0  0  0  0  0
    5.8513   -0.7096   -0.1515 C   0  0  0  0  0  0  0  0  0  0  0  0
    5.9446   -0.6289    1.3585 C   0  0  0  0  0  0  0  0  0  0  0  0
    4.6323   -0.9713    1.8734 N   0  0  0  0  0  0  0  0  0  0  0  0
    4.6620   -1.2093    3.3016 C   0  0  0  0  0  0  0  0  0  0  0  0
    4.1599   -2.1134    1.1312 C   0  0  0  0  0  0  0  0  0  0  0  0
    5.2591   -2.8562    0.4367 C   0  0  0  0  0  0  0  0  0  0  0  0
    5.9333   -2.0735   -0.4967 O   0  0  0  0  0  0  0  0  0  0  0  0
    1.6846    0.3755   -0.9356 C   0  0  0  0  0  0  0  0  0  0  0  0
    0.3150    0.6196   -1.0458 C   0  0  0  0  0  0  0  0  0  0  0  0
   -0.1635    1.5594   -1.8813 N   0  0  0  0  0  0  0  0  0  0  0  0
   -1.4843    1.7951   -1.9880 C   0  0  0  0  0  0  0  0  0  0  0  0
   -2.3731    1.0975   -1.2613 N   0  0  0  0  0  0  0  0  0  0  0  0
   -1.9799    0.1467   -0.4081 C   0  0  0  0  0  0  0  0  0  0  0  0
   -2.8314   -0.6309    0.3901 N   0  0  0  0  0  0  0  0  0  0  0  0
   -4.1965   -0.3220    0.4675 C   0  0  0  0  0  0  0  0  0  0  0  0
   -5.2009   -1.2805    0.3295 C   0  0  0  0  0  0  0  0  0  0  0  0
   -4.8482   -2.5735    0.1101 F   0  0  0  0  0  0  0  0  0  0  0  0
   -6.5412   -0.8943    0.4191 C   0  0  0  0  0  0  0  0  0  0  0  0
   -6.8887    0.4412    0.6454 C   0  0  0  0  0  0  0  0  0  0  0  0
   -8.7396    0.9564    0.7662 Br  0  0  0  0  0  0  0  0  0  0  0  0
   -5.8824    1.3965    0.7828 C   0  0  0  0  0  0  0  0  0  0  0  0
   -4.5440    1.0131    0.6937 C   0  0  0  0  0  0  0  0  0  0  0  0
   -3.5515    1.9468    0.8278 F   0  0  0  0  0  0  0  0  0  0  0  0
   -0.6151   -0.0864   -0.3077 C   0  0  0  0  0  0  0  0  0  0  0  0
   -0.1438   -1.0500    0.5506 C   0  0  0  0  0  0  0  0  0  0  0  0
  1  2  1  0
  2  3  1  0
  3  4  1  0
  4  5  1  0
  5  6  1  0
  6  7  1  0
  7  8  1  0
  8  9  1  0
  9 10  1  0
  9 11  1  0
 11 12  1  0
 12 13  1  0
  4 14  2  0
 14 15  1  0
 15 16  2  0
 16 17  1  0
 17 18  2  0
 18 19  1  0
 19 20  1  0
 20 21  1  0
 21 22  2  0
 22 23  1  0
 22 24  1  0
 24 25  2  0
 25 26  1  0
 25 27  1  0
 27 28  2  0
 28 29  1  0
 19 30  2  0
 30 31  1  0
 31  3  2  0
 13  7  1  0
 30 15  1  0
 28 21  1  0
M  END
>  <Smiles>  (1) 
COc1c(OCC2CN(C)CCO2)cc2ncnc(Nc3c(F)cc(Br)cc3F)c2c1

>  <GEO>  (1) 
3.08 -3.09 3.11 -0.96 -0.15 2.31

>  <target1>  (1) 
P00533_WT

>  <target2>  (1) 
P00533_T790M

$$$$
