
     RDKit          3D

 42 46  0  0  0  0  0  0  0  0999 V2000
    1.6186    4.0318   -0.4524 C   0  0  0  0  0  0  0  0  0  0  0  0
    0.8227    2.9480   -0.0241 O   0  0  0  0  0  0  0  0  0  0  0  0
    1.1533    1.6241   -0.2537 C   0  0  0  0  0  0  0  0  0  0  0  0
    0.4109    0.5738    0.2265 C   0  0  0  0  0  0  0  0  0  0  0  0
   -0.7462    0.8101    1.0191 N   0  0  0  0  0  0  0  0  0  0  0  0
   -1.3243   -0.2114    1.8388 C   0  0  0  0  0  0  0  0  0  0  0  0
   -0.9725   -1.5144    1.7284 N   0  0  0  0  0  0  0  0  0  0  0  0
   -1.5608   -2.3925    2.5537 C   0  0  0  0  0  0  0  0  0  0  0  0
   -2.4883   -1.9830    3.4779 C   0  0  0  0  0  0  0  0  0  0  0  0
   -3.2103   -3.2192    4.4907 Cl  0  0  0  0  0  0  0  0  0  0  0  0
   -2.8507   -0.6338    3.5907 C   0  0  0  0  0  0  0  0  0  0  0  0
   -3.8084   -0.3063    4.5368 N   0  0  0  0  0  0  0  0  0  0  0  0
   -4.3762    0.9329    4.8910 C   0  0  0  0  0  0  0  0  0  0  0  0
   -4.7359    1.7214    3.7741 C   0  0  0  0  0  0  0  0  0  0  0  0
   -5.2950    2.9308    3.9788 C   0  0  0  0  0  0  0  0  0  0  0  0
   -5.5006    3.3682    5.2575 C   0  0  0  0  0  0  0  0  0  0  0  0
   -5.1618    2.6211    6.3402 C   0  0  0  0  0  0  0  0  0  0  0  0
   -4.5865    1.3711    6.1738 C   0  0  0  0  0  0  0  0  0  0  0  0
   -4.2919    0.4470    7.6102 S   0  0  0  0  0  0  0  0  0  0  0  0
   -5.1681    1.0046    8.7319 O   0  0  0  0  0  0  0  0  0  0  0  0
   -2.8714    0.5214    8.0031 O   0  0  0  0  0  0  0  0  0  0  0  0
   -4.7463   -1.2401    7.3455 C   0  0  0  0  0  0  0  0  0  0  0  0
   -3.8700   -1.8416    6.2914 C   0  0  0  0  0  0  0  0  0  0  0  0
   -4.6287   -2.0326    8.6347 C   0  0  0  0  0  0  0  0  0  0  0  0
   -2.2298    0.1957    2.7395 N   0  0  0  0  0  0  0  0  0  0  0  0
    0.7699   -0.7574   -0.0219 C   0  0  0  0  0  0  0  0  0  0  0  0
    1.9162   -1.0240   -0.7792 C   0  0  0  0  0  0  0  0  0  0  0  0
    2.6629    0.0432   -1.2619 C   0  0  0  0  0  0  0  0  0  0  0  0
    3.8543   -0.1435   -2.0290 N   0  0  0  0  0  0  0  0  0  0  0  0
    3.9545    0.2341   -3.4262 C   0  0  0  0  0  0  0  0  0  0  0  0
    5.3279    0.8173   -3.6341 C   0  0  0  0  0  0  0  0  0  0  0  0
    6.0046    1.2866   -2.4105 C   0  0  0  0  0  0  0  0  0  0  0  0
    6.1805    2.6667   -2.2198 N   0  0  0  0  0  0  0  0  0  0  0  0
    5.0536    3.5142   -2.4100 C   0  0  0  0  0  0  0  0  0  0  0  0
    4.9269    4.0543   -3.8186 C   0  0  0  0  0  0  0  0  0  0  0  0
    6.1513    3.6774   -4.5328 N   0  0  0  0  0  0  0  0  0  0  0  0
    6.1672    4.3628   -5.7914 C   0  0  0  0  0  0  0  0  0  0  0  0
    7.2571    4.1935   -3.7099 C   0  0  0  0  0  0  0  0  0  0  0  0
    7.4496    3.1763   -2.6049 C   0  0  0  0  0  0  0  0  0  0  0  0
    6.0104    0.3910   -1.2401 C   0  0  0  0  0  0  0  0  0  0  0  0
    5.0015   -0.7331   -1.3101 C   0  0  0  0  0  0  0  0  0  0  0  0
    2.2879    1.3682   -1.0036 C   0  0  0  0  0  0  0  0  0  0  0  0
  1  2  1  0
  2  3  1  0
  3  4  2  0
  4  5  1  0
  5  6  1  0
  6  7  1  0
  7  8  2  0
  8  9  1  0
  9 10  1  0
  9 11  2  0
 11 12  1  0
 12 13  1  0
 13 14  2  0
 14 15  1  0
 15 16  2  0
 16 17  1  0
 17 18  2  0
 18 19  1  0
 19 20  2  0
 19 21  2  0
 19 22  1  0
 22 23  1  0
 22 24  1  0
 11 25  1  0
  4 26  1  0
 26 27  2  0
 27 28  1  0
 28 29  1  0
 29 30  1  0
 30 31  1  0
 31 32  1  0
 32 33  1  0
 33 34  1  0
 34 35  1  0
 35 36  1  0
 36 37  1  0
 36 38  1  0
 38 39  1  0
 32 40  1  0
 40 41  1  0
 28 42  2  0
 42  3  1  0
 25  6  2  0
 41 29  1  0
 18 13  1  0
 39 33  1  0
M  END
>  <Smiles>  (1) 
COc1c(Nc2ncc(Cl)c(Nc3ccccc3S(=O)(=O)C(C)C)n2)ccc(N2CCC(N3CCN(C)CC3)CC2)c1

>  <GEO>  (1) 
3.08 -2.83 -0.22 3.14 0.78 0.34 1.12 1.98 0.85

>  <target1>  (1) 
P00533_WT

>  <target2>  (1) 
P00533_T790M

$$$$
