
     RDKit          3D

 29 32  0  0  0  0  0  0  0  0999 V2000
    0.2754   -4.6257   -1.3919 C   0  0  0  0  0  0  0  0  0  0  0  0
    1.1408   -3.5805   -0.9760 O   0  0  0  0  0  0  0  0  0  0  0  0
    0.6318   -2.4475   -0.3551 C   0  0  0  0  0  0  0  0  0  0  0  0
    1.4831   -1.4316    0.0189 C   0  0  0  0  0  0  0  0  0  0  0  0
    2.8566   -1.5206   -0.2161 O   0  0  0  0  0  0  0  0  0  0  0  0
    3.6918   -0.3900   -0.0314 C   0  0  0  0  0  0  0  0  0  0  0  0
    4.2035   -0.3292    1.3993 C   0  0  0  0  0  0  0  0  0  0  0  0
    5.0423    0.8904    1.6308 C   0  0  0  0  0  0  0  0  0  0  0  0
    6.1626    0.8987    0.6776 N   0  0  0  0  0  0  0  0  0  0  0  0
    6.8636    2.1680    0.9318 C   0  0  0  0  0  0  0  0  0  0  0  0
    5.8459    3.2387    0.5881 C   0  0  0  0  0  0  0  0  0  0  0  0
    4.9421    2.5018   -0.4046 C   0  0  0  0  0  0  0  0  0  0  0  0
    5.6648    1.1766   -0.6682 C   0  0  0  0  0  0  0  0  0  0  0  0
    1.0520   -0.2722    0.6417 C   0  0  0  0  0  0  0  0  0  0  0  0
   -0.2928   -0.1424    0.8924 C   0  0  0  0  0  0  0  0  0  0  0  0
   -1.0685    0.8329    1.4735 C   0  0  0  0  0  0  0  0  0  0  0  0
   -2.3579    0.4549    1.4698 N   0  0  0  0  0  0  0  0  0  0  0  0
   -2.4039   -0.7338    0.8998 N   0  0  0  0  0  0  0  0  0  0  0  0
   -3.6673   -1.4538    0.7276 C   0  0  0  0  0  0  0  0  0  0  0  0
   -3.6221   -2.8095    1.4416 C   0  0  0  0  0  0  0  0  0  0  0  0
   -3.4104   -2.5701    3.1874 Cl  0  0  0  0  0  0  0  0  0  0  0  0
   -2.5451   -3.6578    0.8883 C   0  0  0  0  0  0  0  0  0  0  0  0
   -2.6145   -4.1103   -0.4128 C   0  0  0  0  0  0  0  0  0  0  0  0
   -1.6612   -4.9027   -1.0114 C   0  0  0  0  0  0  0  0  0  0  0  0
   -0.5605   -5.2746   -0.2711 C   0  0  0  0  0  0  0  0  0  0  0  0
   -0.4710   -4.8333    1.0320 C   0  0  0  0  0  0  0  0  0  0  0  0
   -1.4319   -4.0396    1.6221 C   0  0  0  0  0  0  0  0  0  0  0  0
   -1.1757   -1.1425    0.5305 C   0  0  0  0  0  0  0  0  0  0  0  0
   -0.7373   -2.3122   -0.0983 C   0  0  0  0  0  0  0  0  0  0  0  0
  1  2  1  0
  2  3  1  0
  3  4  2  0
  4  5  1  0
  5  6  1  0
  6  7  1  0
  7  8  1  0
  8  9  1  0
  9 10  1  0
 10 11  1  0
 11 12  1  0
 12 13  1  0
  4 14  1  0
 14 15  2  0
 15 16  1  0
 16 17  2  0
 17 18  1  0
 18 19  1  0
 19 20  1  0
 20 21  1  0
 20 22  1  0
 22 23  2  0
 23 24  1  0
 24 25  2  0
 25 26  1  0
 26 27  2  0
 18 28  1  0
 28 29  2  0
 29  3  1  0
 13  9  1  0
 28 15  1  0
 27 22  1  0
M  END
>  <Smiles>  (1) 
COc1c(OCCCN2CCCC2)cc2cnn(CC(Cl)c3ccccc3)c2c1

>  <GEO>  (1) 
-3.12 2.96 1.56 -3.10 -1.00 3.08 -2.11 1.09 -1.15

>  <target1>  (1) 
P00533_WT

>  <target2>  (1) 
P00533_T790M

$$$$
