
     RDKit          3D

 54 61  0  0  0  0  0  0  0  0999 V2000
    4.2378    0.4227    4.5274 C   0  0  0  0  0  0  0  0  0  0  0  0
    3.1710    0.2167    3.6186 O   0  0  0  0  0  0  0  0  0  0  0  0
    3.4976   -0.0819    2.3118 C   0  0  0  0  0  0  0  0  0  0  0  0
    2.4622   -0.4503    1.4723 C   0  0  0  0  0  0  0  0  0  0  0  0
    1.1093   -0.5330    1.9032 N   0  0  0  0  0  0  0  0  0  0  0  0
    0.0865   -1.1048    1.0971 C   0  0  0  0  0  0  0  0  0  0  0  0
   -1.1639   -1.3434    1.5621 N   0  0  0  0  0  0  0  0  0  0  0  0
   -2.1154   -1.8873    0.7727 C   0  0  0  0  0  0  0  0  0  0  0  0
   -3.4707   -2.1606    1.2331 C   0  0  0  0  0  0  0  0  0  0  0  0
   -4.1747   -3.3128    0.8707 C   0  0  0  0  0  0  0  0  0  0  0  0
   -3.6618   -4.3663    0.0021 C   0  0  0  0  0  0  0  0  0  0  0  0
   -4.4488   -4.9962   -0.9081 C   0  0  0  0  0  0  0  0  0  0  0  0
   -3.9608   -5.9787   -1.7153 C   0  0  0  0  0  0  0  0  0  0  0  0
   -4.8290   -6.6619   -2.7010 C   0  0  0  0  0  0  0  0  0  0  0  0
   -4.2800   -7.2987   -3.6369 O   0  0  0  0  0  0  0  0  0  0  0  0
   -6.2426   -6.5705   -2.5497 N   0  0  0  0  0  0  0  0  0  0  0  0
   -7.1795   -7.2021   -3.3945 C   0  0  0  0  0  0  0  0  0  0  0  0
   -7.0830   -6.8945   -4.7592 C   0  0  0  0  0  0  0  0  0  0  0  0
   -6.1254   -6.0295   -5.2014 F   0  0  0  0  0  0  0  0  0  0  0  0
   -7.9706   -7.4790   -5.6504 C   0  0  0  0  0  0  0  0  0  0  0  0
   -8.9293   -8.3452   -5.2063 C   0  0  0  0  0  0  0  0  0  0  0  0
   -9.0149   -8.6403   -3.8632 C   0  0  0  0  0  0  0  0  0  0  0  0
   -8.1522   -8.0806   -2.9459 C   0  0  0  0  0  0  0  0  0  0  0  0
   -8.1964   -8.3372   -1.6280 F   0  0  0  0  0  0  0  0  0  0  0  0
   -2.6331   -6.3379   -1.6006 C   0  0  0  0  0  0  0  0  0  0  0  0
   -1.8092   -5.7105   -0.6801 C   0  0  0  0  0  0  0  0  0  0  0  0
   -2.3326   -4.7192    0.1237 C   0  0  0  0  0  0  0  0  0  0  0  0
   -5.3822   -3.2263    1.4803 N   0  0  0  0  0  0  0  0  0  0  0  0
   -5.4322   -2.0716    2.1924 C   0  0  0  0  0  0  0  0  0  0  0  0
   -6.3772   -1.4631    2.9926 C   0  0  0  0  0  0  0  0  0  0  0  0
   -6.1570   -0.2534    3.6130 C   0  0  0  0  0  0  0  0  0  0  0  0
   -4.9456    0.3733    3.4271 C   0  0  0  0  0  0  0  0  0  0  0  0
   -4.0132   -0.2456    2.6267 C   0  0  0  0  0  0  0  0  0  0  0  0
   -4.2646   -1.4262    2.0380 N   0  0  0  0  0  0  0  0  0  0  0  0
   -1.7495   -2.1854   -0.5246 C   0  0  0  0  0  0  0  0  0  0  0  0
   -0.4705   -1.9392   -0.9934 C   0  0  0  0  0  0  0  0  0  0  0  0
    0.4349   -1.4024   -0.1810 N   0  0  0  0  0  0  0  0  0  0  0  0
    2.7228   -0.7638    0.1447 C   0  0  0  0  0  0  0  0  0  0  0  0
    3.9973   -0.7214   -0.3789 C   0  0  0  0  0  0  0  0  0  0  0  0
    5.0094   -0.3513    0.4797 C   0  0  0  0  0  0  0  0  0  0  0  0
    6.3491   -0.2929   -0.0097 N   0  0  0  0  0  0  0  0  0  0  0  0
    6.6668   -0.2350   -1.4244 C   0  0  0  0  0  0  0  0  0  0  0  0
    8.1404   -0.5137   -1.5873 C   0  0  0  0  0  0  0  0  0  0  0  0
    8.5006   -1.7221   -0.7893 C   0  0  0  0  0  0  0  0  0  0  0  0
    7.9398   -2.9480   -1.2921 N   0  0  0  0  0  0  0  0  0  0  0  0
    6.5033   -2.8901   -1.1556 C   0  0  0  0  0  0  0  0  0  0  0  0
    5.9406   -4.2424   -1.5353 C   0  0  0  0  0  0  0  0  0  0  0  0
    7.0245   -5.2717   -1.2866 C   0  0  0  0  0  0  0  0  0  0  0  0
    7.7312   -5.5634   -2.5885 C   0  0  0  0  0  0  0  0  0  0  0  0
    8.7161   -4.5119   -2.9835 C   0  0  0  0  0  0  0  0  0  0  0  0
    8.2622   -3.0984   -2.6789 C   0  0  0  0  0  0  0  0  0  0  0  0
    8.2354   -1.5714    0.6902 C   0  0  0  0  0  0  0  0  0  0  0  0
    7.4691   -0.2866    0.9122 C   0  0  0  0  0  0  0  0  0  0  0  0
    4.7658   -0.0383    1.7963 C   0  0  0  0  0  0  0  0  0  0  0  0
  1  2  1  0
  2  3  1  0
  3  4  2  0
  4  5  1  0
  5  6  1  0
  6  7  1  0
  7  8  2  0
  8  9  1  0
  9 10  2  0
 10 11  1  0
 11 12  1  0
 12 13  2  0
 13 14  1  0
 14 15  2  0
 14 16  1  0
 16 17  1  0
 17 18  2  0
 18 19  1  0
 18 20  1  0
 20 21  2  0
 21 22  1  0
 22 23  2  0
 23 24  1  0
 13 25  1  0
 25 26  2  0
 26 27  1  0
 10 28  1  0
 28 29  2  0
 29 30  1  0
 30 31  2  0
 31 32  1  0
 32 33  2  0
 33 34  1  0
  8 35  1  0
 35 36  2  0
 36 37  1  0
  4 38  1  0
 38 39  2  0
 39 40  1  0
 40 41  1  0
 41 42  1  0
 42 43  1  0
 43 44  1  0
 44 45  1  0
 45 46  1  0
 46 47  1  0
 47 48  1  0
 48 49  1  0
 49 50  1  0
 50 51  1  0
 44 52  1  0
 52 53  1  0
 40 54  2  0
 54  3  1  0
 37  6  2  0
 53 41  1  0
 34  9  1  0
 51 45  1  0
 27 11  2  0
 34 29  1  0
 23 17  1  0
M  END
>  <Smiles>  (1) 
COc1c(Nc2nc(-c3c(-c4cc(C(=O)Nc5c(F)cccc5F)ccc4)nc4ccccn34)ccn2)ccc(N2CCC(N3CCCCCC3)CC2)c1

>  <GEO>  (1) 
3.00 -2.97 2.99 -2.45 -2.47 2.83 -3.11 -0.99 0.31 -1.15

>  <target1>  (1) 
P00533_WT

>  <target2>  (1) 
P00533_T790M

$$$$
