@<TRIPOS>MOLECULE
*****
 38 42 0 0 0
SMALL
GASTEIGER

@<TRIPOS>ATOM
      1 C          -2.1353   -4.2388   -0.9743 C.3     1  UNL1        0.2526
      2 O          -1.1339   -3.4309   -0.4109 O.3     1  UNL1       -0.4684
      3 C          -1.2764   -2.0388   -0.2922 C.ar    1  UNL1        0.1726
      4 C          -0.1983   -1.2625    0.0642 C.ar    1  UNL1        0.1745
      5 O           1.0499   -1.8221    0.3181 O.3     1  UNL1       -0.4622
      6 C           2.2000   -1.0953    0.5792 C.3     1  UNL1        0.2924
      7 C           3.4388   -1.8523    0.7581 C.ar    1  UNL1        0.2809
      8 N           4.5339   -1.8975   -0.0607 N.ar    1  UNL1       -0.1899
      9 C           5.4067   -2.7479    0.5593 C.ar    1  UNL1        0.2048
     10 C           6.7584   -3.1646    0.1083 C.3     1  UNL1        0.2262
     11 S           6.5506   -4.3845   -1.2019 S.O2    1  UNL1        0.0325
     12 O           7.9022   -5.0540   -1.3280 O.2     1  UNL1       -0.1668
     13 O           5.5403   -5.4137   -0.8282 O.2     1  UNL1       -0.1668
     14 C           6.1510   -3.5057   -2.6327 C.ar    1  UNL1        0.1867
     15 N           7.0614   -2.7516   -3.2605 N.ar    1  UNL1       -0.2257
     16 C           6.8006   -2.0443   -4.3835 C.ar    1  UNL1        0.1004
     17 C           5.5335   -2.0999   -4.9135 C.ar    1  UNL1        0.0208
     18 C           4.5574   -2.8497   -4.3223 C.ar    1  UNL1        0.0045
     19 C           4.8790   -3.5521   -3.1771 C.ar    1  UNL1        0.0379
     20 N           4.8395   -3.1889    1.7106 N.ar    1  UNL1       -0.0586
     21 O           3.6853   -2.6334    1.7805 O.2     1  UNL1       -0.3334
     22 C          -0.3234    0.1300    0.1853 C.ar    1  UNL1        0.0593
     23 C          -1.5880    0.6633   -0.0761 C.ar    1  UNL1        0.0890
     24 N          -1.7087    1.9846    0.0297 N.ar    1  UNL1       -0.2238
     25 C          -2.8999    2.6058   -0.2109 C.ar    1  UNL1        0.2001
     26 N          -3.9747    1.8413   -0.5644 N.ar    1  UNL1       -0.2072
     27 C          -3.8531    0.5111   -0.6701 C.ar    1  UNL1        0.1550
     28 N          -5.0293   -0.2280   -1.0389 N.pl3   1  UNL1       -0.1940
     29 C          -6.1429    0.6145   -1.4223 C.ar    1  UNL1        0.0730
     30 C          -7.4158    0.1077   -1.1735 C.ar    1  UNL1        0.0288
     31 C          -8.5241    0.8977   -1.5155 C.ar    1  UNL1        0.0695
     32 CL        -10.1248    0.2455   -1.1951 Cl      1  UNL1       -0.0813
     33 C          -8.3376    2.1334   -2.0795 C.ar    1  UNL1        0.0683
     34 CL         -9.7778    3.0584   -2.4763 Cl      1  UNL1       -0.0814
     35 C          -7.0585    2.6567   -2.3368 C.ar    1  UNL1        0.0136
     36 C          -5.9694    1.8405   -1.9816 C.ar    1  UNL1        0.0175
     37 C          -2.6617   -0.1356   -0.4334 C.ar    1  UNL1        0.0543
     38 C          -2.5323   -1.5226   -0.5520 C.ar    1  UNL1        0.0444
@<TRIPOS>BOND
     1     1     2    1
     2     2     3    1
     3     3     4   ar
     4     4     5    1
     5     5     6    1
     6     6     7    1
     7     7     8   ar
     8     8     9   ar
     9     9    10    1
    10    10    11    1
    11    11    12    2
    12    11    13    2
    13    11    14    1
    14    14    15   ar
    15    15    16   ar
    16    16    17   ar
    17    17    18   ar
    18    18    19   ar
    19     9    20   ar
    20    20    21   ar
    21     4    22   ar
    22    22    23   ar
    23    23    24   ar
    24    24    25   ar
    25    25    26   ar
    26    26    27   ar
    27    27    28    1
    28    28    29    1
    29    29    30   ar
    30    30    31   ar
    31    31    32    1
    32    31    33   ar
    33    33    34    1
    34    33    35   ar
    35    35    36   ar
    36    27    37   ar
    37    37    38   ar
    38    38     3   ar
    39    21     7   ar
    40    37    23   ar
    41    19    14   ar
    42    36    29   ar
