@<TRIPOS>MOLECULE
*****
 54 61 0 0 0
SMALL
GASTEIGER

@<TRIPOS>ATOM
      1 C           4.2378    0.4227    4.5274 C.3     1  UNL1        0.2525
      2 O           3.1710    0.2167    3.6186 O.3     1  UNL1       -0.4701
      3 C           3.4976   -0.0819    2.3118 C.ar    1  UNL1        0.1551
      4 C           2.4622   -0.4503    1.4723 C.ar    1  UNL1        0.1075
      5 N           1.1093   -0.5330    1.9032 N.pl3   1  UNL1       -0.1746
      6 C           0.0865   -1.1048    1.0971 C.ar    1  UNL1        0.2410
      7 N          -1.1639   -1.3434    1.5621 N.ar    1  UNL1       -0.2106
      8 C          -2.1154   -1.8873    0.7727 C.ar    1  UNL1        0.1033
      9 C          -3.4707   -2.1606    1.2331 C.ar    1  UNL1        0.1007
     10 C          -4.1747   -3.3128    0.8707 C.ar    1  UNL1        0.1004
     11 C          -3.6618   -4.3663    0.0021 C.ar    1  UNL1        0.0193
     12 C          -4.4488   -4.9962   -0.9081 C.ar    1  UNL1        0.0061
     13 C          -3.9608   -5.9787   -1.7153 C.ar    1  UNL1        0.0554
     14 C          -4.8290   -6.6619   -2.7010 C.2     1  UNL1        0.2691
     15 O          -4.2800   -7.2987   -3.6369 O.2     1  UNL1       -0.2680
     16 N          -6.2426   -6.5705   -2.5497 N.am    1  UNL1       -0.1709
     17 C          -7.1795   -7.2021   -3.3945 C.ar    1  UNL1        0.1283
     18 C          -7.0830   -6.8945   -4.7592 C.ar    1  UNL1        0.1575
     19 F          -6.1254   -6.0295   -5.2014 F       1  UNL1       -0.2027
     20 C          -7.9706   -7.4790   -5.6504 C.ar    1  UNL1        0.0311
     21 C          -8.9293   -8.3452   -5.2063 C.ar    1  UNL1        0.0047
     22 C          -9.0149   -8.6403   -3.8632 C.ar    1  UNL1        0.0311
     23 C          -8.1522   -8.0806   -2.9459 C.ar    1  UNL1        0.1575
     24 F          -8.1964   -8.3372   -1.6280 F       1  UNL1       -0.2027
     25 C          -2.6331   -6.3379   -1.6006 C.ar    1  UNL1        0.0046
     26 C          -1.8092   -5.7105   -0.6801 C.ar    1  UNL1        0.0002
     27 C          -2.3326   -4.7192    0.1237 C.ar    1  UNL1        0.0015
     28 N          -5.3822   -3.2263    1.4803 N.ar    1  UNL1       -0.2264
     29 C          -5.4322   -2.0716    2.1924 C.ar    1  UNL1        0.1478
     30 C          -6.3772   -1.4631    2.9926 C.ar    1  UNL1        0.0374
     31 C          -6.1570   -0.2534    3.6130 C.ar    1  UNL1        0.0046
     32 C          -4.9456    0.3733    3.4271 C.ar    1  UNL1        0.0191
     33 C          -4.0132   -0.2456    2.6267 C.ar    1  UNL1        0.0815
     34 N          -4.2646   -1.4262    2.0380 N.ar    1  UNL1       -0.2875
     35 C          -1.7495   -2.1854   -0.5246 C.ar    1  UNL1        0.0414
     36 C          -0.4705   -1.9392   -0.9934 C.ar    1  UNL1        0.1035
     37 N           0.4349   -1.4024   -0.1810 N.ar    1  UNL1       -0.2106
     38 C           2.7228   -0.7638    0.1447 C.ar    1  UNL1        0.0210
     39 C           3.9973   -0.7214   -0.3789 C.ar    1  UNL1        0.0161
     40 C           5.0094   -0.3513    0.4797 C.ar    1  UNL1        0.0510
     41 N           6.3491   -0.2929   -0.0097 N.pl3   1  UNL1       -0.3073
     42 C           6.6668   -0.2350   -1.4244 C.3     1  UNL1        0.0922
     43 C           8.1404   -0.5137   -1.5873 C.3     1  UNL1        0.0374
     44 C           8.5006   -1.7221   -0.7893 C.3     1  UNL1        0.0609
     45 N           7.9398   -2.9480   -1.2921 N.3     1  UNL1       -0.2738
     46 C           6.5033   -2.8901   -1.1556 C.3     1  UNL1        0.0720
     47 C           5.9406   -4.2424   -1.5353 C.3     1  UNL1        0.0173
     48 C           7.0245   -5.2717   -1.2866 C.3     1  UNL1        0.0015
     49 C           7.7312   -5.5634   -2.5885 C.3     1  UNL1        0.0015
     50 C           8.7161   -4.5119   -2.9835 C.3     1  UNL1        0.0173
     51 C           8.2622   -3.0984   -2.6789 C.3     1  UNL1        0.0720
     52 C           8.2354   -1.5714    0.6902 C.3     1  UNL1        0.0374
     53 C           7.4691   -0.2866    0.9122 C.3     1  UNL1        0.0922
     54 C           4.7658   -0.0383    1.7963 C.ar    1  UNL1        0.0527
@<TRIPOS>BOND
     1     1     2    1
     2     2     3    1
     3     3     4   ar
     4     4     5    1
     5     5     6    1
     6     6     7   ar
     7     7     8   ar
     8     8     9    1
     9     9    10   ar
    10    10    11    1
    11    11    12   ar
    12    12    13   ar
    13    13    14    1
    14    14    15    2
    15    14    16   am
    16    16    17    1
    17    17    18   ar
    18    18    19    1
    19    18    20   ar
    20    20    21   ar
    21    21    22   ar
    22    22    23   ar
    23    23    24    1
    24    13    25   ar
    25    25    26   ar
    26    26    27   ar
    27    10    28   ar
    28    28    29   ar
    29    29    30   ar
    30    30    31   ar
    31    31    32   ar
    32    32    33   ar
    33    33    34   ar
    34     8    35   ar
    35    35    36   ar
    36    36    37   ar
    37     4    38   ar
    38    38    39   ar
    39    39    40   ar
    40    40    41    1
    41    41    42    1
    42    42    43    1
    43    43    44    1
    44    44    45    1
    45    45    46    1
    46    46    47    1
    47    47    48    1
    48    48    49    1
    49    49    50    1
    50    50    51    1
    51    44    52    1
    52    52    53    1
    53    40    54   ar
    54    54     3   ar
    55    37     6   ar
    56    53    41    1
    57    34     9   ar
    58    51    45    1
    59    27    11   ar
    60    34    29   ar
    61    23    17   ar
