@<TRIPOS>MOLECULE
*****
 30 32 0 0 0
SMALL
GASTEIGER

@<TRIPOS>ATOM
      1 C           2.3310   -2.4561   -4.1207 C.3     1  UNL1        0.2525
      2 O           2.2731   -1.5438   -3.0473 O.3     1  UNL1       -0.4701
      3 C           1.1650   -1.5086   -2.2201 C.ar    1  UNL1        0.1554
      4 C           0.0905   -2.3543   -2.4742 C.ar    1  UNL1        0.0575
      5 C          -1.0078   -2.3306   -1.6666 C.ar    1  UNL1        0.0889
      6 C          -1.0460   -1.4602   -0.5947 C.ar    1  UNL1        0.0526
      7 C           0.0174   -0.6104   -0.3290 C.ar    1  UNL1        0.0240
      8 C           1.1311   -0.6372   -1.1502 C.ar    1  UNL1        0.1083
      9 N           2.2641    0.2034   -0.9408 N.am    1  UNL1       -0.1652
     10 C           2.3334    1.0981    0.1708 C.2     1  UNL1        0.3124
     11 O           1.4333    1.1835    1.0433 O.2     1  UNL1       -0.2585
     12 C           3.4962    1.9402    0.2902 C.1     1  UNL1       -0.0039
     13 C           4.4798    2.6642    0.4103 C.1     1  UNL1       -0.0640
     14 C           5.6642    3.5168    0.5332 C.3     1  UNL1        0.1504
     15 N           5.4859    4.6878   -0.3015 N.3     1  UNL1       -0.2591
     16 C           5.4779    4.2378   -1.6796 C.3     1  UNL1        0.0904
     17 C           4.1780    5.2386   -0.0078 C.3     1  UNL1        0.0904
     18 C          -2.1776   -1.4855    0.1954 C.ar    1  UNL1        0.1549
     19 N          -2.3035   -0.6031    1.3298 N.pl3   1  UNL1       -0.1940
     20 C          -3.5773   -0.4753    1.9955 C.ar    1  UNL1        0.0731
     21 C          -4.7613   -0.7970    1.3947 C.ar    1  UNL1        0.0302
     22 C          -5.9258   -0.6217    2.1199 C.ar    1  UNL1        0.0863
     23 CL         -7.4719   -1.0188    1.4019 Cl      1  UNL1       -0.0799
     24 C          -5.9365   -0.1399    3.4112 C.ar    1  UNL1        0.1507
     25 F          -7.1008    0.0316    4.1168 F       1  UNL1       -0.2033
     26 C          -4.7345    0.1825    4.0105 C.ar    1  UNL1        0.0318
     27 C          -3.5919    0.0072    3.2925 C.ar    1  UNL1        0.0189
     28 N          -3.1929   -2.3443   -0.0987 N.ar    1  UNL1       -0.2072
     29 C          -3.1231   -3.1784   -1.1515 C.ar    1  UNL1        0.2001
     30 N          -2.0232   -3.1672   -1.9358 N.ar    1  UNL1       -0.2238
@<TRIPOS>BOND
     1     1     2    1
     2     2     3    1
     3     3     4   ar
     4     4     5   ar
     5     5     6   ar
     6     6     7   ar
     7     7     8   ar
     8     8     9    1
     9     9    10   am
    10    10    11    2
    11    10    12    1
    12    12    13    3
    13    13    14    1
    14    14    15    1
    15    15    16    1
    16    15    17    1
    17     6    18   ar
    18    18    19    1
    19    19    20    1
    20    20    21   ar
    21    21    22   ar
    22    22    23    1
    23    22    24   ar
    24    24    25    1
    25    24    26   ar
    26    26    27   ar
    27    18    28   ar
    28    28    29   ar
    29    29    30   ar
    30     8     3   ar
    31    27    20   ar
    32    30     5   ar
