@<TRIPOS>MOLECULE
*****
 34 37 0 0 0
SMALL
GASTEIGER

@<TRIPOS>ATOM
      1 C          -0.3086   -6.7743    1.2450 C.2     1  UNL1        0.0049
      2 C           0.5449   -5.7861    1.0327 C.2     1  UNL1        0.0598
      3 C           0.0705   -4.4357    0.7521 C.2     1  UNL1        0.2692
      4 O          -1.1537   -4.1395    0.7296 O.2     1  UNL1       -0.2680
      5 N           1.0286   -3.4265    0.4960 N.am    1  UNL1       -0.1724
      6 C           0.7179   -2.0632    0.2207 C.ar    1  UNL1        0.1077
      7 C           1.7554   -1.2162   -0.1059 C.ar    1  UNL1        0.1552
      8 O           3.0868   -1.6379   -0.1787 O.3     1  UNL1       -0.4741
      9 C           4.1167   -0.7634   -0.6128 C.3     1  UNL1        0.2069
     10 C           5.4052   -1.5293   -0.7082 C.3     1  UNL1        0.0646
     11 C           5.8333   -1.9392    0.6801 C.3     1  UNL1        0.0761
     12 N           7.1099   -2.6018    0.7177 N.3     1  UNL1       -0.2683
     13 C           7.0780   -3.9047    0.0904 C.3     1  UNL1        0.1046
     14 C           8.4135   -4.1815   -0.6123 C.3     1  UNL1        0.1595
     15 O           8.6617   -3.2752   -1.6273 O.3     1  UNL1       -0.3508
     16 C           8.1091   -2.0132   -1.3743 C.3     1  UNL1        0.1595
     17 C           8.1408   -1.8181    0.1188 C.3     1  UNL1        0.1046
     18 C           1.5036    0.1080   -0.3784 C.ar    1  UNL1        0.0575
     19 C           0.2347    0.6033   -0.3314 C.ar    1  UNL1        0.0889
     20 N           0.0566    1.9041   -0.6082 N.ar    1  UNL1       -0.2238
     21 C          -1.1972    2.3828   -0.5597 C.ar    1  UNL1        0.2001
     22 N          -2.2638    1.6301   -0.2511 N.ar    1  UNL1       -0.2072
     23 C          -2.0683    0.3306    0.0233 C.ar    1  UNL1        0.1549
     24 N          -3.2055   -0.4630    0.3469 N.pl3   1  UNL1       -0.1940
     25 C          -4.4372    0.1854    0.6828 C.ar    1  UNL1        0.0731
     26 C          -5.5952   -0.5495    0.4442 C.ar    1  UNL1        0.0302
     27 C          -6.8167    0.0252    0.7502 C.ar    1  UNL1        0.0863
     28 CL         -8.3351   -0.8398    0.4762 Cl      1  UNL1       -0.0799
     29 C          -6.8557    1.3084    1.2829 C.ar    1  UNL1        0.1507
     30 F          -8.0697    1.8346    1.5685 F       1  UNL1       -0.2033
     31 C          -5.6968    1.9994    1.5032 C.ar    1  UNL1        0.0318
     32 C          -4.4631    1.4423    1.2035 C.ar    1  UNL1        0.0189
     33 C          -0.8089   -0.2513   -0.0025 C.ar    1  UNL1        0.0526
     34 C          -0.5977   -1.5853    0.2777 C.ar    1  UNL1        0.0240
@<TRIPOS>BOND
     1     1     2    2
     2     2     3    1
     3     3     4    2
     4     3     5   am
     5     5     6    1
     6     6     7   ar
     7     7     8    1
     8     8     9    1
     9     9    10    1
    10    10    11    1
    11    11    12    1
    12    12    13    1
    13    13    14    1
    14    14    15    1
    15    15    16    1
    16    16    17    1
    17     7    18   ar
    18    18    19   ar
    19    19    20   ar
    20    20    21   ar
    21    21    22   ar
    22    22    23   ar
    23    23    24    1
    24    24    25    1
    25    25    26   ar
    26    26    27   ar
    27    27    28    1
    28    27    29   ar
    29    29    30    1
    30    29    31   ar
    31    31    32   ar
    32    23    33   ar
    33    33    34   ar
    34    34     6   ar
    35    17    12    1
    36    33    19   ar
    37    32    25   ar
