@<TRIPOS>MOLECULE
*****
 32 35 0 0 0
SMALL
GASTEIGER

@<TRIPOS>ATOM
      1 C           0.3171   -2.6336   -2.9611 C.3     1  UNL1        0.2526
      2 O           1.2413   -1.8355   -2.2523 O.3     1  UNL1       -0.4684
      3 C           0.7503   -0.8912   -1.3587 C.ar    1  UNL1        0.1726
      4 C           1.6250   -0.0411   -0.6847 C.ar    1  UNL1        0.1739
      5 O           2.9785   -0.1893   -0.9514 O.3     1  UNL1       -0.4681
      6 C           3.8408    0.9293   -0.9473 C.3     1  UNL1        0.2586
      7 C           4.7586    0.9498    0.2558 C.3     1  UNL1        0.3135
      8 C           5.3201   -0.4677    0.3704 C.3     1  UNL1        0.2563
      9 N           5.9044   -0.7923   -0.9164 N.pl3   1  UNL1       -0.1710
     10 C           5.8659   -2.1691   -1.3447 C.3     1  UNL1        0.2543
     11 C           6.5080    0.2046   -1.7568 C.2     1  UNL1        0.4386
     12 C           7.1150   -0.1848   -3.0006 C.1     1  UNL1        0.1934
     13 N           7.6102   -0.5233   -4.0136 N.1     1  UNL1       -0.1832
     14 N           6.4882    1.4533   -1.3620 N.2     1  UNL1        0.1668
     15 O           5.8806    1.7519   -0.1429 O.2     1  UNL1       -0.2750
     16 C           1.1140    0.8833    0.1931 C.ar    1  UNL1        0.0593
     17 C          -0.2285    1.0207    0.4491 C.ar    1  UNL1        0.0890
     18 N          -0.7458    1.9133    1.2991 N.ar    1  UNL1       -0.2238
     19 C          -2.0634    2.0419    1.5447 C.ar    1  UNL1        0.2001
     20 N          -2.8947    1.2200    0.8916 N.ar    1  UNL1       -0.2072
     21 C          -2.4523    0.2973    0.0221 C.ar    1  UNL1        0.1550
     22 N          -3.3166   -0.5873   -0.6839 N.pl3   1  UNL1       -0.1940
     23 C          -4.7117   -0.2634   -0.6816 C.ar    1  UNL1        0.0730
     24 C          -5.6495   -1.2848   -0.8234 C.ar    1  UNL1        0.0288
     25 C          -7.0069   -1.0051   -0.8253 C.ar    1  UNL1        0.0695
     26 CL         -8.1953   -2.2624   -1.0007 Cl      1  UNL1       -0.0813
     27 C          -7.4094    0.3101   -0.6833 C.ar    1  UNL1        0.0683
     28 CL         -9.1094    0.7122   -0.6797 Cl      1  UNL1       -0.0814
     29 C          -6.4954    1.3504   -0.5399 C.ar    1  UNL1        0.0136
     30 C          -5.1321    1.0586   -0.5393 C.ar    1  UNL1        0.0175
     31 C          -1.0959    0.1762   -0.2207 C.ar    1  UNL1        0.0543
     32 C          -0.6030   -0.7616   -1.1086 C.ar    1  UNL1        0.0444
@<TRIPOS>BOND
     1     1     2    1
     2     2     3    1
     3     3     4   ar
     4     4     5    1
     5     5     6    1
     6     6     7    1
     7     7     8    1
     8     8     9    1
     9     9    10    1
    10     9    11    1
    11    11    12    1
    12    12    13    3
    13    11    14    2
    14    14    15    1
    15     4    16   ar
    16    16    17   ar
    17    17    18   ar
    18    18    19   ar
    19    19    20   ar
    20    20    21   ar
    21    21    22    1
    22    22    23    1
    23    23    24   ar
    24    24    25   ar
    25    25    26    1
    26    25    27   ar
    27    27    28    1
    28    27    29   ar
    29    29    30   ar
    30    21    31   ar
    31    31    32   ar
    32    32     3   ar
    33    15     7    1
    34    31    17   ar
    35    30    23   ar
