@<TRIPOS>MOLECULE
*****
 29 32 0 0 0
SMALL
GASTEIGER

@<TRIPOS>ATOM
      1 C           0.2754   -4.6257   -1.3919 C.3     1  UNL1        0.2526
      2 O           1.1408   -3.5805   -0.9760 O.3     1  UNL1       -0.4683
      3 C           0.6318   -2.4475   -0.3551 C.ar    1  UNL1        0.1739
      4 C           1.4831   -1.4316    0.0189 C.ar    1  UNL1        0.1724
      5 O           2.8566   -1.5206   -0.2161 O.3     1  UNL1       -0.4724
      6 C           3.6918   -0.3900   -0.0314 C.3     1  UNL1        0.2070
      7 C           4.2035   -0.3292    1.3993 C.3     1  UNL1        0.0646
      8 C           5.0423    0.8904    1.6308 C.3     1  UNL1        0.0759
      9 N           6.1626    0.8987    0.6776 N.3     1  UNL1       -0.2726
     10 C           6.8636    2.1680    0.9318 C.3     1  UNL1        0.0721
     11 C           5.8459    3.2387    0.5881 C.3     1  UNL1        0.0188
     12 C           4.9421    2.5018   -0.4046 C.3     1  UNL1        0.0188
     13 C           5.6648    1.1766   -0.6682 C.3     1  UNL1        0.0721
     14 C           1.0520   -0.2722    0.6417 C.ar    1  UNL1        0.0431
     15 C          -0.2928   -0.1424    0.8924 C.ar    1  UNL1        0.0414
     16 C          -1.0685    0.8329    1.4735 C.ar    1  UNL1        0.1217
     17 N          -2.3579    0.4549    1.4698 N.ar    1  UNL1       -0.1677
     18 N          -2.4039   -0.7338    0.8998 N.ar    1  UNL1       -0.2492
     19 C          -3.6673   -1.4538    0.7276 C.3     1  UNL1        0.1480
     20 C          -3.6221   -2.8095    1.4416 C.3     1  UNL1        0.1264
     21 CL         -3.4104   -2.5701    3.1874 Cl      1  UNL1       -0.1081
     22 C          -2.5451   -3.6578    0.8883 C.ar    1  UNL1       -0.0055
     23 C          -2.6145   -4.1103   -0.4128 C.ar    1  UNL1       -0.0030
     24 C          -1.6612   -4.9027   -1.0114 C.ar    1  UNL1       -0.0003
     25 C          -0.5605   -5.2746   -0.2711 C.ar    1  UNL1       -0.0000
     26 C          -0.4710   -4.8333    1.0320 C.ar    1  UNL1       -0.0003
     27 C          -1.4319   -4.0396    1.6221 C.ar    1  UNL1       -0.0030
     28 C          -1.1757   -1.1425    0.5305 C.ar    1  UNL1        0.0827
     29 C          -0.7373   -2.3122   -0.0983 C.ar    1  UNL1        0.0588
@<TRIPOS>BOND
     1     1     2    1
     2     2     3    1
     3     3     4   ar
     4     4     5    1
     5     5     6    1
     6     6     7    1
     7     7     8    1
     8     8     9    1
     9     9    10    1
    10    10    11    1
    11    11    12    1
    12    12    13    1
    13     4    14   ar
    14    14    15   ar
    15    15    16   ar
    16    16    17   ar
    17    17    18   ar
    18    18    19    1
    19    19    20    1
    20    20    21    1
    21    20    22    1
    22    22    23   ar
    23    23    24   ar
    24    24    25   ar
    25    25    26   ar
    26    26    27   ar
    27    18    28   ar
    28    28    29   ar
    29    29     3   ar
    30    13     9    1
    31    28    15   ar
    32    27    22   ar
