@<TRIPOS>MOLECULE
*****
 37 41 0 0 0
SMALL
GASTEIGER

@<TRIPOS>ATOM
      1 C           4.5640   -1.9342    3.5148 C.2     1  UNL1        0.0049
      2 C           3.8109   -2.0613    2.4097 C.2     1  UNL1        0.0598
      3 C           3.3671   -0.8589    1.6902 C.2     1  UNL1        0.2692
      4 O           3.1234   -0.8519    0.4602 O.2     1  UNL1       -0.2680
      5 N           3.2310    0.3234    2.5046 N.am    1  UNL1       -0.1741
      6 C           2.8781    1.5423    1.8541 C.ar    1  UNL1        0.0884
      7 C           2.7853    1.6734    0.4913 C.ar    1  UNL1        0.0375
      8 C           2.4430    2.8369   -0.1647 C.ar    1  UNL1        0.1088
      9 N           2.3837    2.8026   -1.5710 N.pl3   1  UNL1       -0.1745
     10 C           2.5368    1.6324   -2.3622 C.ar    1  UNL1        0.2410
     11 N           2.7476    0.4157   -1.8145 N.ar    1  UNL1       -0.2097
     12 C           2.8914   -0.7038   -2.5836 C.ar    1  UNL1        0.1147
     13 C           2.8136   -0.5566   -3.9703 C.ar    1  UNL1        0.0946
     14 CL          2.9863   -1.9430   -5.0362 Cl      1  UNL1       -0.0790
     15 C           2.5985    0.6832   -4.5311 C.ar    1  UNL1        0.0993
     16 C           2.5156    0.8185   -5.9811 C.ar    1  UNL1        0.0572
     17 C           3.0691    1.8068   -6.7592 C.ar    1  UNL1        0.0858
     18 C           3.8255    2.9067   -6.4121 C.ar    1  UNL1        0.0193
     19 C           4.2442    3.7353   -7.4444 C.ar    1  UNL1        0.0031
     20 C           3.9061    3.4503   -8.7508 C.ar    1  UNL1        0.0207
     21 C           3.1398    2.3225   -9.0281 C.ar    1  UNL1        0.1004
     22 N           2.7257    1.5054   -8.0224 N.ar    1  UNL1       -0.2281
     23 N           2.0075    0.4146   -8.0861 N.ar    1  UNL1       -0.1634
     24 C           1.8577   -0.0379   -6.8386 C.ar    1  UNL1        0.1235
     25 N           2.4666    1.7409   -3.7166 N.ar    1  UNL1       -0.2112
     26 C           2.1736    3.9545    0.6019 C.ar    1  UNL1        0.1552
     27 O           1.8305    5.1223   -0.0635 O.3     1  UNL1       -0.4701
     28 C           1.5731    6.3006    0.7097 C.3     1  UNL1        0.2525
     29 C           2.2537    3.8724    1.9798 C.ar    1  UNL1        0.0541
     30 C           2.6000    2.6869    2.6031 C.ar    1  UNL1        0.0666
     31 N           2.6472    2.6897    4.0256 N.pl3   1  UNL1       -0.3036
     32 C           1.4757    2.5626    4.8646 C.3     1  UNL1        0.1082
     33 C           1.5232    3.5771    6.0098 C.3     1  UNL1        0.0938
     34 N           2.5960    4.4935    5.7575 N.3     1  UNL1       -0.2686
     35 C           2.5990    5.6716    6.5735 C.3     1  UNL1        0.0897
     36 C           3.9075    3.8724    5.7055 C.3     1  UNL1        0.0938
     37 C           3.9856    2.8317    4.6158 C.3     1  UNL1        0.1082
@<TRIPOS>BOND
     1     1     2    2
     2     2     3    1
     3     3     4    2
     4     3     5   am
     5     5     6    1
     6     6     7   ar
     7     7     8   ar
     8     8     9    1
     9     9    10    1
    10    10    11   ar
    11    11    12   ar
    12    12    13   ar
    13    13    14    1
    14    13    15   ar
    15    15    16    1
    16    16    17   ar
    17    17    18   ar
    18    18    19   ar
    19    19    20   ar
    20    20    21   ar
    21    21    22   ar
    22    22    23   ar
    23    23    24   ar
    24    15    25   ar
    25     8    26   ar
    26    26    27    1
    27    27    28    1
    28    26    29   ar
    29    29    30   ar
    30    30    31    1
    31    31    32    1
    32    32    33    1
    33    33    34    1
    34    34    35    1
    35    34    36    1
    36    36    37    1
    37    30     6   ar
    38    37    31    1
    39    25    10   ar
    40    24    16   ar
    41    22    17   ar
