@<TRIPOS>MOLECULE
*****
 38 42 0 0 0
SMALL
GASTEIGER

@<TRIPOS>ATOM
      1 C           2.8801   -4.6163    0.4057 C.3     1  UNL1        0.2526
      2 O           1.6911   -3.9393    0.6745 O.3     1  UNL1       -0.4684
      3 C           1.5993   -2.5390    0.6774 C.ar    1  UNL1        0.1726
      4 C           0.3990   -1.9479    0.9889 C.ar    1  UNL1        0.1738
      5 O          -0.6675   -2.7492    1.2861 O.3     1  UNL1       -0.4704
      6 C          -1.9166   -2.3451    1.7650 C.3     1  UNL1        0.2284
      7 C          -2.7913   -3.5323    2.1547 C.3     1  UNL1        0.1547
      8 C          -4.1813   -2.9904    2.3430 C.3     1  UNL1        0.0985
      9 N          -5.1152   -4.0119    2.6988 N.3     1  UNL1       -0.2596
     10 C          -6.1998   -3.4406    3.4813 C.3     1  UNL1        0.0986
     11 C          -7.2412   -4.4661    3.7007 C.2     1  UNL1       -0.0173
     12 C          -7.4417   -5.1278    4.8278 C.2     1  UNL1       -0.0472
     13 C          -6.6224   -4.8401    6.0367 C.3     1  UNL1        0.0217
     14 C          -7.5617   -4.6104    7.1979 C.3     1  UNL1        0.0043
     15 C          -8.9832   -4.9981    6.9078 C.3     1  UNL1        0.0007
     16 C          -9.0970   -6.3307    6.2073 C.3     1  UNL1        0.0043
     17 C          -8.5221   -6.1644    4.8156 C.3     1  UNL1        0.0217
     18 C          -4.5677   -5.1660    3.3367 C.3     1  UNL1        0.1605
     19 C          -3.3354   -4.8781    4.1145 C.2     1  UNL1        0.2578
     20 O          -3.1283   -5.3591    5.2709 O.2     1  UNL1       -0.2718
     21 N          -2.3772   -4.0148    3.4811 N.am    1  UNL1       -0.2007
     22 C           0.3600   -0.5617    0.9779 C.ar    1  UNL1        0.0593
     23 C           1.4780    0.1570    0.6681 C.ar    1  UNL1        0.0890
     24 N           1.4380    1.4877    0.6583 N.ar    1  UNL1       -0.2238
     25 C           2.4995    2.2602    0.3628 C.ar    1  UNL1        0.2001
     26 N           3.6510    1.6300    0.0650 N.ar    1  UNL1       -0.2072
     27 C           3.7891    0.2942    0.0487 C.ar    1  UNL1        0.1550
     28 N           5.0100   -0.3653   -0.2672 N.pl3   1  UNL1       -0.1940
     29 C           6.2033    0.4119   -0.2884 C.ar    1  UNL1        0.0730
     30 C           7.2943    0.0547   -1.0340 C.ar    1  UNL1        0.0288
     31 C           8.4714    0.7906   -1.0759 C.ar    1  UNL1        0.0695
     32 CL          9.8473    0.3018   -2.0422 Cl      1  UNL1       -0.0813
     33 C           8.5189    1.9402   -0.3160 C.ar    1  UNL1        0.0683
     34 CL          9.9664    2.9321   -0.3084 Cl      1  UNL1       -0.0814
     35 C           7.4460    2.3526    0.4588 C.ar    1  UNL1        0.0136
     36 C           6.2889    1.5739    0.4624 C.ar    1  UNL1        0.0175
     37 C           2.6755   -0.4591    0.3578 C.ar    1  UNL1        0.0543
     38 C           2.7418   -1.8307    0.3613 C.ar    1  UNL1        0.0444
@<TRIPOS>BOND
     1     1     2    1
     2     2     3    1
     3     3     4   ar
     4     4     5    1
     5     5     6    1
     6     6     7    1
     7     7     8    1
     8     8     9    1
     9     9    10    1
    10    10    11    1
    11    11    12    2
    12    12    13    1
    13    13    14    1
    14    14    15    1
    15    15    16    1
    16    16    17    1
    17     9    18    1
    18    18    19    1
    19    19    20    2
    20    19    21   am
    21     4    22   ar
    22    22    23   ar
    23    23    24   ar
    24    24    25   ar
    25    25    26   ar
    26    26    27   ar
    27    27    28    1
    28    28    29    1
    29    29    30   ar
    30    30    31   ar
    31    31    32    1
    32    31    33   ar
    33    33    34    1
    34    33    35   ar
    35    35    36   ar
    36    27    37   ar
    37    37    38   ar
    38    38     3   ar
    39    21     7    1
    40    37    23   ar
    41    17    12    1
    42    36    29   ar
