@<TRIPOS>MOLECULE
*****
 34 38 0 0 0
SMALL
GASTEIGER

@<TRIPOS>ATOM
      1 C           0.2877   -3.3653   -1.6771 C.3     1  UNL1        0.2526
      2 O           1.1212   -2.5159   -0.8933 O.3     1  UNL1       -0.4684
      3 C           0.5197   -1.4178   -0.2964 C.ar    1  UNL1        0.1726
      4 C          -0.8507   -1.2494   -0.3604 C.ar    1  UNL1        0.0444
      5 C          -1.4489   -0.1484    0.2387 C.ar    1  UNL1        0.0543
      6 C          -0.7250    0.8129    0.9134 C.ar    1  UNL1        0.0890
      7 C           0.6479    0.6315    0.9698 C.ar    1  UNL1        0.0593
      8 C           1.2576   -0.4644    0.3752 C.ar    1  UNL1        0.1738
      9 O           2.6543   -0.6323    0.4427 O.3     1  UNL1       -0.4697
     10 C           3.4861    0.2372    1.1434 C.3     1  UNL1        0.2362
     11 C           3.7695    1.4996    0.3590 C.3     1  UNL1        0.1746
     12 C           4.2587    2.5819    1.2936 C.3     1  UNL1        0.1060
     13 N           3.5606    3.8154    1.0971 N.3     1  UNL1       -0.2654
     14 C           4.0615    4.6260    0.0155 C.3     1  UNL1        0.1047
     15 C           3.2962    4.4396   -1.2708 C.3     1  UNL1        0.1595
     16 O           1.9263    4.4050   -1.1013 O.3     1  UNL1       -0.3508
     17 C           1.5753    4.7902    0.1796 C.3     1  UNL1        0.1606
     18 C           2.1311    3.7162    1.1215 C.3     1  UNL1        0.1174
     19 C           1.6968    2.3908    0.5356 C.3     1  UNL1        0.1607
     20 O           2.6473    1.9120   -0.3646 O.3     1  UNL1       -0.3495
     21 N          -1.3370    1.8679    1.4828 N.ar    1  UNL1       -0.2238
     22 C          -2.6794    2.0318    1.4194 C.ar    1  UNL1        0.2001
     23 N          -3.4000    1.1044    0.7658 N.ar    1  UNL1       -0.2072
     24 C          -2.8358    0.0305    0.1791 C.ar    1  UNL1        0.1550
     25 N          -3.6492   -0.9362   -0.5097 N.pl3   1  UNL1       -0.1917
     26 C          -3.3444   -2.3237   -0.4175 C.ar    1  UNL1        0.1003
     27 C          -3.6491   -3.2092   -1.4458 C.ar    1  UNL1        0.0307
     28 C          -3.3466   -4.5682   -1.3469 C.ar    1  UNL1        0.0653
     29 CL         -3.7497   -5.6504   -2.6705 Cl      1  UNL1       -0.0817
     30 C          -2.7336   -5.0102   -0.1938 C.ar    1  UNL1        0.0474
     31 BR         -2.3122   -6.8763   -0.0447 Br      1  UNL1       -0.0480
     32 C          -2.4313   -4.1177    0.8322 C.ar    1  UNL1        0.0385
     33 C          -2.7318   -2.7655    0.7346 C.ar    1  UNL1        0.1558
     34 F          -2.4199   -1.9410    1.7537 F       1  UNL1       -0.2028
@<TRIPOS>BOND
     1     1     2    1
     2     2     3    1
     3     3     4   ar
     4     4     5   ar
     5     5     6   ar
     6     6     7   ar
     7     7     8   ar
     8     8     9    1
     9     9    10    1
    10    10    11    1
    11    11    12    1
    12    12    13    1
    13    13    14    1
    14    14    15    1
    15    15    16    1
    16    16    17    1
    17    17    18    1
    18    18    19    1
    19    19    20    1
    20     6    21   ar
    21    21    22   ar
    22    22    23   ar
    23    23    24   ar
    24    24    25    1
    25    25    26    1
    26    26    27   ar
    27    27    28   ar
    28    28    29    1
    29    28    30   ar
    30    30    31    1
    31    30    32   ar
    32    32    33   ar
    33    33    34    1
    34     8     3   ar
    35    20    11    1
    36    33    26   ar
    37    24     5   ar
    38    18    13    1
