@<TRIPOS>MOLECULE
*****
 42 46 0 0 0
SMALL
GASTEIGER

@<TRIPOS>ATOM
      1 C           1.6186    4.0318   -0.4524 C.3     1  UNL1        0.2525
      2 O           0.8227    2.9480   -0.0241 O.3     1  UNL1       -0.4701
      3 C           1.1533    1.6241   -0.2537 C.ar    1  UNL1        0.1551
      4 C           0.4109    0.5738    0.2265 C.ar    1  UNL1        0.1075
      5 N          -0.7462    0.8101    1.0191 N.pl3   1  UNL1       -0.1745
      6 C          -1.3243   -0.2114    1.8388 C.ar    1  UNL1        0.2422
      7 N          -0.9725   -1.5144    1.7284 N.ar    1  UNL1       -0.2096
      8 C          -1.5608   -2.3925    2.5537 C.ar    1  UNL1        0.1161
      9 C          -2.4883   -1.9830    3.4779 C.ar    1  UNL1        0.1101
     10 CL         -3.2103   -3.2192    4.4907 Cl      1  UNL1       -0.0776
     11 C          -2.8507   -0.6338    3.5907 C.ar    1  UNL1        0.1668
     12 N          -3.8084   -0.3063    4.5368 N.pl3   1  UNL1       -0.1920
     13 C          -4.3762    0.9329    4.8910 C.ar    1  UNL1        0.0892
     14 C          -4.7359    1.7214    3.7741 C.ar    1  UNL1        0.0179
     15 C          -5.2950    2.9308    3.9788 C.ar    1  UNL1        0.0014
     16 C          -5.5006    3.3682    5.2575 C.ar    1  UNL1        0.0014
     17 C          -5.1618    2.6211    6.3402 C.ar    1  UNL1        0.0197
     18 C          -4.5865    1.3711    6.1738 C.ar    1  UNL1        0.1208
     19 S          -4.2919    0.4470    7.6102 S.O2    1  UNL1        0.0082
     20 O          -5.1681    1.0046    8.7319 O.2     1  UNL1       -0.1686
     21 O          -2.8714    0.5214    8.0031 O.2     1  UNL1       -0.1686
     22 C          -4.7463   -1.2401    7.3455 C.3     1  UNL1        0.1340
     23 C          -3.8700   -1.8416    6.2914 C.3     1  UNL1        0.0257
     24 C          -4.6287   -2.0326    8.6347 C.3     1  UNL1        0.0257
     25 N          -2.2298    0.1957    2.7395 N.ar    1  UNL1       -0.1945
     26 C           0.7699   -0.7574   -0.0219 C.ar    1  UNL1        0.0210
     27 C           1.9162   -1.0240   -0.7792 C.ar    1  UNL1        0.0161
     28 C           2.6629    0.0432   -1.2619 C.ar    1  UNL1        0.0510
     29 N           3.8543   -0.1435   -2.0290 N.pl3   1  UNL1       -0.3073
     30 C           3.9545    0.2341   -3.4262 C.3     1  UNL1        0.0922
     31 C           5.3279    0.8173   -3.6341 C.3     1  UNL1        0.0374
     32 C           6.0046    1.2866   -2.4105 C.3     1  UNL1        0.0610
     33 N           6.1805    2.6667   -2.2198 N.3     1  UNL1       -0.2715
     34 C           5.0536    3.5142   -2.4100 C.3     1  UNL1        0.0896
     35 C           4.9269    4.0543   -3.8186 C.3     1  UNL1        0.0897
     36 N           6.1513    3.6774   -4.5328 N.3     1  UNL1       -0.2691
     37 C           6.1672    4.3628   -5.7914 C.3     1  UNL1        0.0897
     38 C           7.2571    4.1935   -3.7099 C.3     1  UNL1        0.0897
     39 C           7.4496    3.1763   -2.6049 C.3     1  UNL1        0.0896
     40 C           6.0104    0.3910   -1.2401 C.3     1  UNL1        0.0374
     41 C           5.0015   -0.7331   -1.3101 C.3     1  UNL1        0.0922
     42 C           2.2879    1.3682   -1.0036 C.ar    1  UNL1        0.0527
@<TRIPOS>BOND
     1     1     2    1
     2     2     3    1
     3     3     4   ar
     4     4     5    1
     5     5     6    1
     6     6     7   ar
     7     7     8   ar
     8     8     9   ar
     9     9    10    1
    10     9    11   ar
    11    11    12    1
    12    12    13    1
    13    13    14   ar
    14    14    15   ar
    15    15    16   ar
    16    16    17   ar
    17    17    18   ar
    18    18    19    1
    19    19    20    2
    20    19    21    2
    21    19    22    1
    22    22    23    1
    23    22    24    1
    24    11    25   ar
    25     4    26   ar
    26    26    27   ar
    27    27    28   ar
    28    28    29    1
    29    29    30    1
    30    30    31    1
    31    31    32    1
    32    32    33    1
    33    33    34    1
    34    34    35    1
    35    35    36    1
    36    36    37    1
    37    36    38    1
    38    38    39    1
    39    32    40    1
    40    40    41    1
    41    28    42   ar
    42    42     3   ar
    43    25     6   ar
    44    41    29    1
    45    18    13   ar
    46    39    33    1
