@<TRIPOS>MOLECULE
*****
 31 34 0 0 0
SMALL
GASTEIGER

@<TRIPOS>ATOM
      1 C           0.6131   -2.9411    2.3545 C.3     1  UNL1        0.2526
      2 O           1.6012   -2.3018    1.5685 O.3     1  UNL1       -0.4684
      3 C           1.2015   -1.3216    0.6887 C.ar    1  UNL1        0.1726
      4 C           2.1190   -0.5988   -0.0641 C.ar    1  UNL1        0.1738
      5 O           3.4546   -0.9221    0.1229 O.3     1  UNL1       -0.4697
      6 C           4.4633   -0.2156   -0.5377 C.3     1  UNL1        0.2362
      7 C           5.8513   -0.7096   -0.1515 C.3     1  UNL1        0.1746
      8 C           5.9446   -0.6289    1.3585 C.3     1  UNL1        0.1060
      9 N           4.6323   -0.9713    1.8734 N.3     1  UNL1       -0.2672
     10 C           4.6620   -1.2093    3.3016 C.3     1  UNL1        0.0898
     11 C           4.1599   -2.1134    1.1312 C.3     1  UNL1        0.1047
     12 C           5.2591   -2.8562    0.4367 C.3     1  UNL1        0.1595
     13 O           5.9333   -2.0735   -0.4967 O.3     1  UNL1       -0.3495
     14 C           1.6846    0.3755   -0.9356 C.ar    1  UNL1        0.0593
     15 C           0.3150    0.6196   -1.0458 C.ar    1  UNL1        0.0890
     16 N          -0.1635    1.5594   -1.8813 N.ar    1  UNL1       -0.2238
     17 C          -1.4843    1.7951   -1.9880 C.ar    1  UNL1        0.2001
     18 N          -2.3731    1.0975   -1.2613 N.ar    1  UNL1       -0.2072
     19 C          -1.9799    0.1467   -0.4081 C.ar    1  UNL1        0.1551
     20 N          -2.8314   -0.6309    0.3901 N.pl3   1  UNL1       -0.1895
     21 C          -4.1965   -0.3220    0.4675 C.ar    1  UNL1        0.1268
     22 C          -5.2009   -1.2805    0.3295 C.ar    1  UNL1        0.1580
     23 F          -4.8482   -2.5735    0.1101 F       1  UNL1       -0.2027
     24 C          -6.5412   -0.8943    0.4191 C.ar    1  UNL1        0.0378
     25 C          -6.8887    0.4412    0.6454 C.ar    1  UNL1        0.0391
     26 BR         -8.7396    0.9564    0.7662 Br      1  UNL1       -0.0489
     27 C          -5.8824    1.3965    0.7828 C.ar    1  UNL1        0.0378
     28 C          -4.5440    1.0131    0.6937 C.ar    1  UNL1        0.1580
     29 F          -3.5515    1.9468    0.8278 F       1  UNL1       -0.2027
     30 C          -0.6151   -0.0864   -0.3077 C.ar    1  UNL1        0.0543
     31 C          -0.1438   -1.0500    0.5506 C.ar    1  UNL1        0.0444
@<TRIPOS>BOND
     1     1     2    1
     2     2     3    1
     3     3     4   ar
     4     4     5    1
     5     5     6    1
     6     6     7    1
     7     7     8    1
     8     8     9    1
     9     9    10    1
    10     9    11    1
    11    11    12    1
    12    12    13    1
    13     4    14   ar
    14    14    15   ar
    15    15    16   ar
    16    16    17   ar
    17    17    18   ar
    18    18    19   ar
    19    19    20    1
    20    20    21    1
    21    21    22   ar
    22    22    23    1
    23    22    24   ar
    24    24    25   ar
    25    25    26    1
    26    25    27   ar
    27    27    28   ar
    28    28    29    1
    29    19    30   ar
    30    30    31   ar
    31    31     3   ar
    32    13     7    1
    33    30    15   ar
    34    28    21   ar
