resistance_project/docking/5319283d3047ac55/Q9UM73_L1196M/docked/molecule_0002_out.pdbqt
 OpenBabel09232609183D

 56 59  0  0  0  0  0  0  0  0999 V2000
   31.2430   45.8300    8.0390 C   0  0  0  0  0  0  0  0  0  0  0  0
   30.2560   44.8940    8.0000 C   0  0  0  0  0  0  0  0  0  0  0  0
   28.9420   45.2790    8.1580 C   0  0  0  0  0  0  0  0  0  0  0  0
   28.5540   46.5890    8.3590 C   0  0  0  0  0  0  0  0  0  0  0  0
   29.5520   47.5340    8.3980 C   0  0  0  0  0  0  0  0  0  0  0  0
   30.8710   47.1650    8.2410 C   0  0  0  0  0  0  0  0  0  0  0  0
   27.1690   46.9110    8.5150 N   0  0  0  0  0  0  0  0  0  0  0  0
   26.5200   47.7950    7.6460 C   0  0  0  0  0  0  0  0  0  0  0  0
   27.1570   48.2640    6.6690 O   0  0  0  0  0  0  0  0  0  0  0  0
   25.1640   48.2170    7.7800 N   0  0  0  0  0  0  0  0  0  0  0  0
   24.6120   47.9050    8.5790 H   0  0  0  0  0  0  0  0  0  0  0  0
   26.6420   46.4880    9.2780 H   0  0  0  0  0  0  0  0  0  0  0  0
   24.5690   49.0830    6.7940 C   0  0  0  0  0  0  0  0  0  0  0  0
   25.0690   50.3320    6.5430 C   0  0  0  0  0  0  0  0  0  0  0  0
   24.4540   51.1330    5.5730 C   0  0  0  0  0  0  0  0  0  0  0  0
   23.3400   50.6610    4.8730 C   0  0  0  0  0  0  0  0  0  0  0  0
   22.8400   49.3930    5.1350 C   0  0  0  0  0  0  0  0  0  0  0  0
   23.4730   48.6150    6.1060 C   0  0  0  0  0  0  0  0  0  0  0  0
   22.7860   51.5110    3.9300 O   0  0  0  0  0  0  0  0  0  0  0  0
   23.1630   51.4860    2.5630 C   0  0  0  0  0  0  0  0  0  0  0  0
   22.0570   51.2550    1.7490 F   0  0  0  0  0  0  0  0  0  0  0  0
   23.8010   52.6570    2.1930 F   0  0  0  0  0  0  0  0  0  0  0  0
   24.0730   50.4560    2.3030 F   0  0  0  0  0  0  0  0  0  0  0  0
   32.6560   45.5780    7.8900 C   0  0  0  0  0  0  0  0  0  0  0  0
   33.3750   45.2000    9.0100 C   0  0  0  0  0  0  0  0  0  0  0  0
   34.7290   44.9350    8.9590 C   0  0  0  0  0  0  0  0  0  0  0  0
   35.4050   45.0460    7.7470 C   0  0  0  0  0  0  0  0  0  0  0  0
   34.7080   45.4190    6.6220 C   0  0  0  0  0  0  0  0  0  0  0  0
   35.0430   45.6150    5.3450 N   0  0  0  0  0  0  0  0  0  0  0  0
   33.3500   45.6790    6.7040 C   0  0  0  0  0  0  0  0  0  0  0  0
   34.0200   45.9730    4.6170 N   0  0  0  0  0  0  0  0  0  0  0  0
   35.9890   45.4970    4.9800 H   0  0  0  0  0  0  0  0  0  0  0  0
   32.9550   46.0190    5.4500 C   0  0  0  0  0  0  0  0  0  0  0  0
   34.0230   46.1790    3.6180 H   0  0  0  0  0  0  0  0  0  0  0  0
   31.6580   46.3710    5.0420 N   0  0  0  0  0  0  0  0  0  0  0  0
   36.7930   44.7860    7.6350 N   0  0  0  0  0  0  0  0  0  0  0  0
   37.7450   45.7730    8.1200 C   0  0  0  0  0  0  0  0  0  0  0  0
   37.3200   43.5510    7.0480 C   0  0  0  0  0  0  0  0  0  0  0  0
   30.4904   43.8998    7.8527 H   0  0  0  0  0  0  0  0  0  0  0  0
   28.2110   44.5513    8.1244 H   0  0  0  0  0  0  0  0  0  0  0  0
   29.3119   48.5267    8.5459 H   0  0  0  0  0  0  0  0  0  0  0  0
   31.6033   47.8914    8.2732 H   0  0  0  0  0  0  0  0  0  0  0  0
   25.8900   50.6796    7.0628 H   0  0  0  0  0  0  0  0  0  0  0  0
   24.8246   52.0754    5.3742 H   0  0  0  0  0  0  0  0  0  0  0  0
   22.0189   49.0335    4.6236 H   0  0  0  0  0  0  0  0  0  0  0  0
   23.1119   47.6704    6.3119 H   0  0  0  0  0  0  0  0  0  0  0  0
   32.8831   45.1133    9.9131 H   0  0  0  0  0  0  0  0  0  0  0  0
   35.2035   45.6077    9.6425 H   0  0  0  0  0  0  0  0  0  0  0  0
   31.4835   46.6010    4.1008 H   0  0  0  0  0  0  0  0  0  0  0  0
   30.9234   46.3877    5.6972 H   0  0  0  0  0  0  0  0  0  0  0  0
   38.7411   45.4174    7.9581 H   0  0  0  0  0  0  0  0  0  0  0  0
   37.5895   45.9345    9.1663 H   0  0  0  0  0  0  0  0  0  0  0  0
   37.6047   46.6932    7.5924 H   0  0  0  0  0  0  0  0  0  0  0  0
   36.5070   42.9276    6.7392 H   0  0  0  0  0  0  0  0  0  0  0  0
   37.9098   43.0336    7.7756 H   0  0  0  0  0  0  0  0  0  0  0  0
   37.9280   43.7900    6.2006 H   0  0  0  0  0  0  0  0  0  0  0  0
  1  6  1  0  0  0  0
  2  1  2  0  0  0  0
  2  3  1  0  0  0  0
  2 39  1  0  0  0  0
  3  4  2  0  0  0  0
  3 40  1  0  0  0  0
  4  5  1  0  0  0  0
  4  7  1  0  0  0  0
  5 41  1  0  0  0  0
  6  5  2  0  0  0  0
  6 42  1  0  0  0  0
  7 12  1  0  0  0  0
  8 10  1  0  0  0  0
  8  7  1  0  0  0  0
  9  8  2  0  0  0  0
 10 11  1  0  0  0  0
 13 10  1  0  0  0  0
 14 13  1  0  0  0  0
 14 43  1  0  0  0  0
 15 14  2  0  0  0  0
 15 44  1  0  0  0  0
 16 17  2  0  0  0  0
 16 15  1  0  0  0  0
 17 18  1  0  0  0  0
 17 45  1  0  0  0  0
 18 13  2  0  0  0  0
 18 46  1  0  0  0  0
 19 16  1  0  0  0  0
 20 19  1  0  0  0  0
 21 20  1  0  0  0  0
 22 20  1  0  0  0  0
 23 20  1  0  0  0  0
 24  1  1  0  0  0  0
 24 25  2  0  0  0  0
 25 47  1  0  0  0  0
 26 25  1  0  0  0  0
 26 48  1  0  0  0  0
 27 26  1  0  0  0  0
 28 30  1  0  0  0  0
 28 27  2  0  0  0  0
 29 28  1  0  0  0  0
 30 24  1  0  0  0  0
 31 29  1  0  0  0  0
 31 33  1  0  0  0  0
 32 29  1  0  0  0  0
 33 30  2  0  0  0  0
 34 31  1  0  0  0  0
 35 33  1  0  0  0  0
 35 49  1  0  0  0  0
 35 50  1  0  0  0  0
 36 27  1  0  0  0  0
 36 37  1  0  0  0  0
 37 51  1  0  0  0  0
 37 52  1  0  0  0  0
 37 53  1  0  0  0  0
 38 36  1  0  0  0  0
 38 54  1  0  0  0  0
 38 55  1  0  0  0  0
 38 56  1  0  0  0  0
M  END
>  <MODEL>
1

>  <REMARK>
 VINA RESULT:      -7.5      0.000      0.000
  6 active torsions:
  status: ('A' for Active; 'I' for Inactive)
    1  A    between atoms: N_2  and  C_4 
    2  A    between atoms: C_7  and  C_8 
    3  A    between atoms: C_11  and  N_12 
       I    between atoms: N_12  and  C_14 
       I    between atoms: C_14  and  N_16 
    4  A    between atoms: N_16  and  C_18 
    5  A    between atoms: C_21  and  O_22 
    6  A    between atoms: O_22  and  C_23 

>  <TORSDO>
F 6

$$$$
resistance_project/docking/5319283d3047ac55/Q9UM73_L1196M/docked/molecule_0002_out.pdbqt
 OpenBabel09232609183D

 56 59  0  0  1  0  0  0  0  0999 V2000
   32.1800   45.8010    7.5290 C   0  0  0  0  0  0  0  0  0  0  0  0
   31.1360   44.9290    7.5710 C   0  0  0  0  0  0  0  0  0  0  0  0
   29.8830   45.3790    7.9310 C   0  0  0  0  0  0  0  0  0  0  0  0
   29.6150   46.6930    8.2590 C   0  0  0  0  0  0  0  0  0  0  0  0
   30.6700   47.5730    8.2160 C   0  0  0  0  0  0  0  0  0  0  0  0
   31.9280   47.1400    7.8580 C   0  0  0  0  0  0  0  0  0  0  0  0
   28.2870   47.0850    8.6230 N   0  0  0  0  0  0  0  0  0  0  0  0
   27.4790   47.8270    7.7560 C   0  0  0  0  0  0  0  0  0  0  0  0
   27.9100   48.0990    6.6070 O   0  0  0  0  0  0  0  0  0  0  0  0
   26.1760   48.3120    8.0740 N   0  0  0  0  0  0  0  0  0  0  0  0
   25.7930   48.1620    9.0080 H   0  0  0  0  0  0  0  0  0  0  0  0
   27.9220   46.8170    9.5360 H   0  0  0  0  0  0  0  0  0  0  0  0
   25.3970   49.0160    7.0870 C   0  0  0  0  0  0  0  0  0  0  0  0
   25.8130   50.2110    6.5650 C   0  0  0  0  0  0  0  0  0  0  0  0
   25.0190   50.8530    5.6080 C   0  0  0  0  0  0  0  0  0  0  0  0
   23.8150   50.2780    5.1920 C   0  0  0  0  0  0  0  0  0  0  0  0
   23.4020   49.0670    5.7270 C   0  0  0  0  0  0  0  0  0  0  0  0
   24.2120   48.4470    6.6790 C   0  0  0  0  0  0  0  0  0  0  0  0
   23.0840   50.9730    4.2410 O   0  0  0  0  0  0  0  0  0  0  0  0
   23.4970   51.0810    2.8880 C   0  0  0  0  0  0  0  0  0  0  0  0
   24.3000   50.0010    2.5290 F   0  0  0  0  0  0  0  0  0  0  0  0
   22.4120   51.1840    2.0360 F   0  0  0  0  0  0  0  0  0  0  0  0
   24.2600   52.2340    2.6790 F   0  0  0  0  0  0  0  0  0  0  0  0
   33.5400   45.4780    7.1720 C   0  0  0  0  0  0  0  0  0  0  0  0
   33.9690   45.7760    5.8920 C   0  0  0  0  0  0  0  0  0  0  0  0
   35.2550   45.5070    5.4660 C   0  0  0  0  0  0  0  0  0  0  0  0
   36.1590   44.9150    6.3440 C   0  0  0  0  0  0  0  0  0  0  0  0
   35.7520   44.6120    7.6220 C   0  0  0  0  0  0  0  0  0  0  0  0
   36.3490   44.0570    8.6790 N   0  0  0  0  0  0  0  0  0  0  0  0
   34.4560   44.8940    8.0210 C   0  0  0  0  0  0  0  0  0  0  0  0
   35.5460   43.9660    9.7050 N   0  0  0  0  0  0  0  0  0  0  0  0
   37.3200   43.7420    8.6840 H   0  0  0  0  0  0  0  0  0  0  0  0
   34.3600   44.4830    9.3110 C   0  0  2  0  0  0  0  0  0  0  0  0
   35.7700   43.5810   10.6230 H   0  0  0  0  0  0  0  0  0  0  0  0
   33.2290   44.5630   10.1390 N   0  0  0  0  0  0  0  0  0  0  0  0
   37.4890   44.6160    5.9620 N   0  0  0  0  0  0  0  0  0  0  0  0
   38.4730   45.6860    5.9030 C   0  0  0  0  0  0  0  0  0  0  0  0
   37.9260   43.2590    5.6200 C   0  0  0  0  0  0  0  0  0  0  0  0
   31.2813   43.9350    7.3344 H   0  0  0  0  0  0  0  0  0  0  0  0
   29.1068   44.6994    7.9565 H   0  0  0  0  0  0  0  0  0  0  0  0
   30.5186   48.5658    8.4537 H   0  0  0  0  0  0  0  0  0  0  0  0
   32.7047   47.8190    7.8314 H   0  0  0  0  0  0  0  0  0  0  0  0
   26.7023   50.6339    6.8737 H   0  0  0  0  0  0  0  0  0  0  0  0
   25.3236   51.7542    5.2080 H   0  0  0  0  0  0  0  0  0  0  0  0
   22.5146   48.6337    5.4274 H   0  0  0  0  0  0  0  0  0  0  0  0
   23.9171   47.5451    7.0847 H   0  0  0  0  0  0  0  0  0  0  0  0
   33.3064   46.2139    5.2330 H   0  0  0  0  0  0  0  0  0  0  0  0
   35.5438   45.7431    4.5038 H   0  0  0  0  0  0  0  0  0  0  0  0
   32.4589   44.9881    9.6226 H   0  0  0  0  0  0  0  0  0  0  0  0
   33.4458   45.1331   10.9566 H   0  0  0  0  0  0  0  0  0  0  0  0
   39.4176   45.2855    5.5991 H   0  0  0  0  0  0  0  0  0  0  0  0
   38.5702   46.1349    6.8694 H   0  0  0  0  0  0  0  0  0  0  0  0
   38.1550   46.4245    5.1971 H   0  0  0  0  0  0  0  0  0  0  0  0
   38.9649   43.2727    5.3641 H   0  0  0  0  0  0  0  0  0  0  0  0
   37.3582   42.9008    4.7868 H   0  0  0  0  0  0  0  0  0  0  0  0
   37.7739   42.6131    6.4594 H   0  0  0  0  0  0  0  0  0  0  0  0
  1  2  2  0  0  0  0
  1  6  1  0  0  0  0
  2  3  1  0  0  0  0
  2 39  1  0  0  0  0
  3  4  2  0  0  0  0
  3 40  1  0  0  0  0
  4  7  1  0  0  0  0
  5  4  1  0  0  0  0
  5 41  1  0  0  0  0
  6  5  2  0  0  0  0
  6 42  1  0  0  0  0
  7 12  1  0  0  0  0
  8 10  1  0  0  0  0
  8  7  1  0  0  0  0
  9  8  2  0  0  0  0
 10 11  1  0  0  0  0
 13 10  1  0  0  0  0
 14 13  2  0  0  0  0
 14 43  1  0  0  0  0
 15 14  1  0  0  0  0
 15 44  1  0  0  0  0
 16 15  2  0  0  0  0
 16 17  1  0  0  0  0
 17 18  2  0  0  0  0
 17 45  1  0  0  0  0
 18 13  1  0  0  0  0
 18 46  1  0  0  0  0
 19 16  1  0  0  0  0
 20 19  1  0  0  0  0
 21 20  1  0  0  0  0
 22 20  1  0  0  0  0
 23 20  1  0  0  0  0
 24  1  1  0  0  0  0
 24 30  1  0  0  0  0
 25 24  2  0  0  0  0
 25 47  1  0  0  0  0
 26 25  1  0  0  0  0
 26 27  2  0  0  0  0
 26 48  1  0  0  0  0
 27 28  1  0  0  0  0
 28 30  2  0  0  0  0
 28 29  1  0  0  0  0
 29 32  1  0  0  0  0
 29 31  1  0  0  0  0
 30 33  1  0  0  0  0
 31 34  1  0  0  0  0
 33 31  1  0  0  0  0
 33 35  1  6  0  0  0
 35 49  1  0  0  0  0
 35 50  1  0  0  0  0
 36 27  1  0  0  0  0
 37 36  1  0  0  0  0
 37 51  1  0  0  0  0
 37 52  1  0  0  0  0
 37 53  1  0  0  0  0
 38 36  1  0  0  0  0
 38 54  1  0  0  0  0
 38 55  1  0  0  0  0
 38 56  1  0  0  0  0
M  END
>  <REMARK>
 VINA RESULT:      -7.4      1.501      2.257
  6 active torsions:
  status: ('A' for Active; 'I' for Inactive)
    1  A    between atoms: N_2  and  C_4 
    2  A    between atoms: C_7  and  C_8 
    3  A    between atoms: C_11  and  N_12 
       I    between atoms: N_12  and  C_14 
       I    between atoms: C_14  and  N_16 
    4  A    between atoms: N_16  and  C_18 
    5  A    between atoms: C_21  and  O_22 
    6  A    between atoms: O_22  and  C_23 

>  <TORSDO>
F 6

$$$$
resistance_project/docking/5319283d3047ac55/Q9UM73_L1196M/docked/molecule_0002_out.pdbqt
 OpenBabel09232609183D

 56 59  0  0  1  0  0  0  0  0999 V2000
   33.5420   44.9880    7.9520 C   0  0  0  0  0  0  0  0  0  0  0  0
   32.7360   43.9980    8.4220 C   0  0  0  0  0  0  0  0  0  0  0  0
   31.4020   44.2550    8.6570 C   0  0  0  0  0  0  0  0  0  0  0  0
   30.8180   45.4870    8.4390 C   0  0  0  0  0  0  0  0  0  0  0  0
   31.6330   46.4870    7.9640 C   0  0  0  0  0  0  0  0  0  0  0  0
   32.9680   46.2460    7.7230 C   0  0  0  0  0  0  0  0  0  0  0  0
   29.4250   45.6780    8.7070 N   0  0  0  0  0  0  0  0  0  0  0  0
   28.6830   46.6710    8.0590 C   0  0  0  0  0  0  0  0  0  0  0  0
   29.2440   47.3670    7.1750 O   0  0  0  0  0  0  0  0  0  0  0  0
   27.3130   46.9660    8.3240 N   0  0  0  0  0  0  0  0  0  0  0  0
   26.8200   46.4640    9.0630 H   0  0  0  0  0  0  0  0  0  0  0  0
   28.9610   45.0760    9.3880 H   0  0  0  0  0  0  0  0  0  0  0  0
   26.6210   47.9690    7.5550 C   0  0  0  0  0  0  0  0  0  0  0  0
   25.2540   48.0390    7.5360 C   0  0  0  0  0  0  0  0  0  0  0  0
   24.6300   49.0330    6.7730 C   0  0  0  0  0  0  0  0  0  0  0  0
   25.3970   49.9420    6.0400 C   0  0  0  0  0  0  0  0  0  0  0  0
   26.7820   49.8630    6.0650 C   0  0  0  0  0  0  0  0  0  0  0  0
   27.3790   48.8620    6.8340 C   0  0  0  0  0  0  0  0  0  0  0  0
   24.7090   50.8970    5.3090 O   0  0  0  0  0  0  0  0  0  0  0  0
   24.3340   50.7010    3.9550 C   0  0  0  0  0  0  0  0  0  0  0  0
   23.5160   49.5820    3.8250 F   0  0  0  0  0  0  0  0  0  0  0  0
   23.7100   51.8220    3.4370 F   0  0  0  0  0  0  0  0  0  0  0  0
   25.4520   50.4760    3.1440 F   0  0  0  0  0  0  0  0  0  0  0  0
   34.9500   44.8680    7.6600 C   0  0  0  0  0  0  0  0  0  0  0  0
   35.3210   44.3760    6.4220 C   0  0  0  0  0  0  0  0  0  0  0  0
   36.6450   44.2320    6.0560 C   0  0  0  0  0  0  0  0  0  0  0  0
   37.6490   44.5900    6.9520 C   0  0  0  0  0  0  0  0  0  0  0  0
   37.2990   45.0820    8.1880 C   0  0  0  0  0  0  0  0  0  0  0  0
   37.9920   45.5040    9.2480 N   0  0  0  0  0  0  0  0  0  0  0  0
   35.9630   45.2150    8.5270 C   0  0  0  0  0  0  0  0  0  0  0  0
   37.2120   45.8900   10.2220 N   0  0  0  0  0  0  0  0  0  0  0  0
   39.0110   45.5220    9.2920 H   0  0  0  0  0  0  0  0  0  0  0  0
   35.9420   45.7160    9.7890 C   0  0  2  0  0  0  0  0  0  0  0  0
   37.5030   46.2510   11.1300 H   0  0  0  0  0  0  0  0  0  0  0  0
   34.8060   46.0170   10.5570 N   0  0  0  0  0  0  0  0  0  0  0  0
   39.0220   44.4630    6.6310 N   0  0  0  0  0  0  0  0  0  0  0  0
   39.6590   43.1580    6.7200 C   0  0  0  0  0  0  0  0  0  0  0  0
   39.8410   45.6020    6.2060 C   0  0  0  0  0  0  0  0  0  0  0  0
   33.1217   43.0579    8.6020 H   0  0  0  0  0  0  0  0  0  0  0  0
   30.8104   43.4883    9.0136 H   0  0  0  0  0  0  0  0  0  0  0  0
   31.2419   47.4254    7.7866 H   0  0  0  0  0  0  0  0  0  0  0  0
   33.5604   47.0113    7.3647 H   0  0  0  0  0  0  0  0  0  0  0  0
   24.6896   47.3663    8.0782 H   0  0  0  0  0  0  0  0  0  0  0  0
   23.6001   49.0945    6.7519 H   0  0  0  0  0  0  0  0  0  0  0  0
   27.3581   50.5292    5.5272 H   0  0  0  0  0  0  0  0  0  0  0  0
   28.4082   48.7909    6.8619 H   0  0  0  0  0  0  0  0  0  0  0  0
   34.5850   44.1078    5.7501 H   0  0  0  0  0  0  0  0  0  0  0  0
   36.8887   43.8614    5.1242 H   0  0  0  0  0  0  0  0  0  0  0  0
   33.9658   45.8028   10.0197 H   0  0  0  0  0  0  0  0  0  0  0  0
   34.8117   47.0080   10.7985 H   0  0  0  0  0  0  0  0  0  0  0  0
   40.6893   43.2445    6.4444 H   0  0  0  0  0  0  0  0  0  0  0  0
   39.1686   42.4758    6.0574 H   0  0  0  0  0  0  0  0  0  0  0  0
   39.5876   42.7940    7.7236 H   0  0  0  0  0  0  0  0  0  0  0  0
   40.8412   45.2716    6.0179 H   0  0  0  0  0  0  0  0  0  0  0  0
   39.8494   46.3430    6.9778 H   0  0  0  0  0  0  0  0  0  0  0  0
   39.4303   46.0228    5.3120 H   0  0  0  0  0  0  0  0  0  0  0  0
  1  2  1  0  0  0  0
  2  3  2  0  0  0  0
  2 39  1  0  0  0  0
  3 40  1  0  0  0  0
  4  3  1  0  0  0  0
  4  7  1  0  0  0  0
  5  4  2  0  0  0  0
  5 41  1  0  0  0  0
  6  1  2  0  0  0  0
  6  5  1  0  0  0  0
  6 42  1  0  0  0  0
  7 12  1  0  0  0  0
  8 10  1  0  0  0  0
  8  7  1  0  0  0  0
  9  8  2  0  0  0  0
 10 11  1  0  0  0  0
 13 10  1  0  0  0  0
 14 13  1  0  0  0  0
 14 43  1  0  0  0  0
 15 14  2  0  0  0  0
 15 44  1  0  0  0  0
 16 17  2  0  0  0  0
 16 15  1  0  0  0  0
 17 18  1  0  0  0  0
 17 45  1  0  0  0  0
 18 13  2  0  0  0  0
 18 46  1  0  0  0  0
 19 16  1  0  0  0  0
 20 19  1  0  0  0  0
 21 20  1  0  0  0  0
 22 20  1  0  0  0  0
 23 20  1  0  0  0  0
 24  1  1  0  0  0  0
 24 30  1  0  0  0  0
 25 24  2  0  0  0  0
 25 47  1  0  0  0  0
 26 25  1  0  0  0  0
 26 27  2  0  0  0  0
 26 48  1  0  0  0  0
 27 28  1  0  0  0  0
 28 30  2  0  0  0  0
 28 29  1  0  0  0  0
 29 32  1  0  0  0  0
 29 31  1  0  0  0  0
 30 33  1  0  0  0  0
 31 34  1  0  0  0  0
 33 31  1  0  0  0  0
 33 35  1  1  0  0  0
 35 49  1  0  0  0  0
 35 50  1  0  0  0  0
 36 37  1  0  0  0  0
 36 27  1  0  0  0  0
 37 51  1  0  0  0  0
 37 52  1  0  0  0  0
 37 53  1  0  0  0  0
 38 36  1  0  0  0  0
 38 54  1  0  0  0  0
 38 55  1  0  0  0  0
 38 56  1  0  0  0  0
M  END
>  <REMARK>
 VINA RESULT:      -7.3      2.018      3.264
  6 active torsions:
  status: ('A' for Active; 'I' for Inactive)
    1  A    between atoms: N_2  and  C_4 
    2  A    between atoms: C_7  and  C_8 
    3  A    between atoms: C_11  and  N_12 
       I    between atoms: N_12  and  C_14 
       I    between atoms: C_14  and  N_16 
    4  A    between atoms: N_16  and  C_18 
    5  A    between atoms: C_21  and  O_22 
    6  A    between atoms: O_22  and  C_23 

>  <TORSDO>
F 6

$$$$
resistance_project/docking/5319283d3047ac55/Q9UM73_L1196M/docked/molecule_0002_out.pdbqt
 OpenBabel09232609183D

 56 59  0  0  1  0  0  0  0  0999 V2000
   28.1820   47.1130    7.8980 C   0  0  0  0  0  0  0  0  0  0  0  0
   28.4300   46.7880    9.1960 C   0  0  0  0  0  0  0  0  0  0  0  0
   29.4660   45.9310    9.5000 C   0  0  0  0  0  0  0  0  0  0  0  0
   30.2900   45.3680    8.5460 C   0  0  0  0  0  0  0  0  0  0  0  0
   30.0390   45.6970    7.2350 C   0  0  0  0  0  0  0  0  0  0  0  0
   29.0070   46.5530    6.9140 C   0  0  0  0  0  0  0  0  0  0  0  0
   31.3460   44.4860    8.9390 N   0  0  0  0  0  0  0  0  0  0  0  0
   32.6910   44.8270    8.7590 C   0  0  0  0  0  0  0  0  0  0  0  0
   32.9720   45.9630    8.2990 O   0  0  0  0  0  0  0  0  0  0  0  0
   33.7930   43.9750    9.0610 N   0  0  0  0  0  0  0  0  0  0  0  0
   33.6240   43.0250    9.3940 H   0  0  0  0  0  0  0  0  0  0  0  0
   31.1140   43.5880    9.3610 H   0  0  0  0  0  0  0  0  0  0  0  0
   35.1460   44.4450    8.8980 C   0  0  0  0  0  0  0  0  0  0  0  0
   35.7290   45.2770    9.8150 C   0  0  0  0  0  0  0  0  0  0  0  0
   37.0470   45.7040    9.6090 C   0  0  0  0  0  0  0  0  0  0  0  0
   37.7550   45.2840    8.4800 C   0  0  0  0  0  0  0  0  0  0  0  0
   37.1540   44.4400    7.5570 C   0  0  0  0  0  0  0  0  0  0  0  0
   35.8400   44.0290    7.7860 C   0  0  0  0  0  0  0  0  0  0  0  0
   39.0530   45.7490    8.3450 O   0  0  0  0  0  0  0  0  0  0  0  0
   39.4090   46.7700    7.4270 C   0  0  0  0  0  0  0  0  0  0  0  0
   40.3070   47.6640    8.0050 F   0  0  0  0  0  0  0  0  0  0  0  0
   39.9340   46.2400    6.2620 F   0  0  0  0  0  0  0  0  0  0  0  0
   38.2930   47.5180    7.0400 F   0  0  0  0  0  0  0  0  0  0  0  0
   27.1380   47.9920    7.4290 C   0  0  0  0  0  0  0  0  0  0  0  0
   25.8250   47.5770    7.5620 C   0  0  0  0  0  0  0  0  0  0  0  0
   24.7630   48.3550    7.1460 C   0  0  0  0  0  0  0  0  0  0  0  0
   25.0070   49.6000    6.5720 C   0  0  0  0  0  0  0  0  0  0  0  0
   26.3050   50.0310    6.4330 C   0  0  0  0  0  0  0  0  0  0  0  0
   26.8680   51.1360    5.9390 N   0  0  0  0  0  0  0  0  0  0  0  0
   27.3500   49.2290    6.8590 C   0  0  0  0  0  0  0  0  0  0  0  0
   28.1710   51.1000    6.0170 N   0  0  0  0  0  0  0  0  0  0  0  0
   26.3410   51.9160    5.5460 H   0  0  0  0  0  0  0  0  0  0  0  0
   28.4890   49.9160    6.5880 C   0  0  1  0  0  0  0  0  0  0  0  0
   28.8210   51.8230    5.7080 H   0  0  0  0  0  0  0  0  0  0  0  0
   29.8050   49.5000    6.8440 N   0  0  0  0  0  0  0  0  0  0  0  0
   23.9570   50.4400    6.1280 N   0  0  0  0  0  0  0  0  0  0  0  0
   23.8010   50.6950    4.7040 C   0  0  0  0  0  0  0  0  0  0  0  0
   23.0070   51.0710    7.0480 C   0  0  0  0  0  0  0  0  0  0  0  0
   27.8449   47.1815    9.9496 H   0  0  0  0  0  0  0  0  0  0  0  0
   29.6343   45.6984   10.4913 H   0  0  0  0  0  0  0  0  0  0  0  0
   30.6274   45.3003    6.4857 H   0  0  0  0  0  0  0  0  0  0  0  0
   28.8379   46.7873    5.9233 H   0  0  0  0  0  0  0  0  0  0  0  0
   35.2040   45.5860   10.6480 H   0  0  0  0  0  0  0  0  0  0  0  0
   37.4970   46.3313   10.2938 H   0  0  0  0  0  0  0  0  0  0  0  0
   37.6673   44.1232    6.7197 H   0  0  0  0  0  0  0  0  0  0  0  0
   35.3805   43.4011    7.1081 H   0  0  0  0  0  0  0  0  0  0  0  0
   25.6331   46.6559    7.9860 H   0  0  0  0  0  0  0  0  0  0  0  0
   23.7949   48.0161    7.2597 H   0  0  0  0  0  0  0  0  0  0  0  0
   30.4560   50.2216    6.5344 H   0  0  0  0  0  0  0  0  0  0  0  0
   29.9921   48.6338    6.3389 H   0  0  0  0  0  0  0  0  0  0  0  0
   24.5610   50.1715    4.1626 H   0  0  0  0  0  0  0  0  0  0  0  0
   23.8895   51.7450    4.5179 H   0  0  0  0  0  0  0  0  0  0  0  0
   22.8377   50.3561    4.3844 H   0  0  0  0  0  0  0  0  0  0  0  0
   22.3064   51.6570    6.4907 H   0  0  0  0  0  0  0  0  0  0  0  0
   23.5369   51.7023    7.7303 H   0  0  0  0  0  0  0  0  0  0  0  0
   22.4840   50.3145    7.5949 H   0  0  0  0  0  0  0  0  0  0  0  0
  1  2  2  0  0  0  0
  2  3  1  0  0  0  0
  2 39  1  0  0  0  0
  3 40  1  0  0  0  0
  4  7  1  0  0  0  0
  4  3  2  0  0  0  0
  5  4  1  0  0  0  0
  5 41  1  0  0  0  0
  6  5  2  0  0  0  0
  6  1  1  0  0  0  0
  6 42  1  0  0  0  0
  7 12  1  0  0  0  0
  8  7  1  0  0  0  0
  8 10  1  0  0  0  0
  9  8  2  0  0  0  0
 10 11  1  0  0  0  0
 13 10  1  0  0  0  0
 13 14  2  0  0  0  0
 14 43  1  0  0  0  0
 15 14  1  0  0  0  0
 15 44  1  0  0  0  0
 16 15  2  0  0  0  0
 17 18  2  0  0  0  0
 17 16  1  0  0  0  0
 17 45  1  0  0  0  0
 18 13  1  0  0  0  0
 18 46  1  0  0  0  0
 19 16  1  0  0  0  0
 20 21  1  0  0  0  0
 20 19  1  0  0  0  0
 22 20  1  0  0  0  0
 23 20  1  0  0  0  0
 24 25  2  0  0  0  0
 24  1  1  0  0  0  0
 25 47  1  0  0  0  0
 26 25  1  0  0  0  0
 26 48  1  0  0  0  0
 27 26  2  0  0  0  0
 28 27  1  0  0  0  0
 28 30  2  0  0  0  0
 29 31  1  0  0  0  0
 29 28  1  0  0  0  0
 30 24  1  0  0  0  0
 31 33  1  0  0  0  0
 32 29  1  0  0  0  0
 33 35  1  1  0  0  0
 33 30  1  0  0  0  0
 34 31  1  0  0  0  0
 35 49  1  0  0  0  0
 35 50  1  0  0  0  0
 36 27  1  0  0  0  0
 36 38  1  0  0  0  0
 37 36  1  0  0  0  0
 37 51  1  0  0  0  0
 37 52  1  0  0  0  0
 37 53  1  0  0  0  0
 38 54  1  0  0  0  0
 38 55  1  0  0  0  0
 38 56  1  0  0  0  0
M  END
>  <REMARK>
 VINA RESULT:      -7.1      5.810     11.314
  6 active torsions:
  status: ('A' for Active; 'I' for Inactive)
    1  A    between atoms: N_2  and  C_4 
    2  A    between atoms: C_7  and  C_8 
    3  A    between atoms: C_11  and  N_12 
       I    between atoms: N_12  and  C_14 
       I    between atoms: C_14  and  N_16 
    4  A    between atoms: N_16  and  C_18 
    5  A    between atoms: C_21  and  O_22 
    6  A    between atoms: O_22  and  C_23 

>  <TORSDO>
F 6

$$$$
resistance_project/docking/5319283d3047ac55/Q9UM73_L1196M/docked/molecule_0002_out.pdbqt
 OpenBabel09232609183D

 56 59  0  0  1  0  0  0  0  0999 V2000
   26.6550   48.8740    6.8320 C   0  0  0  0  0  0  0  0  0  0  0  0
   27.5430   49.2920    5.8900 C   0  0  0  0  0  0  0  0  0  0  0  0
   28.8870   49.0330    6.0540 C   0  0  0  0  0  0  0  0  0  0  0  0
   29.4020   48.3580    7.1420 C   0  0  0  0  0  0  0  0  0  0  0  0
   28.5050   47.9350    8.0940 C   0  0  0  0  0  0  0  0  0  0  0  0
   27.1570   48.1850    7.9450 C   0  0  0  0  0  0  0  0  0  0  0  0
   30.8110   48.1270    7.2420 N   0  0  0  0  0  0  0  0  0  0  0  0
   31.3270   46.8610    7.5390 C   0  0  0  0  0  0  0  0  0  0  0  0
   30.5320   45.8940    7.6560 O   0  0  0  0  0  0  0  0  0  0  0  0
   32.7110   46.5700    7.7230 N   0  0  0  0  0  0  0  0  0  0  0  0
   33.3970   47.3240    7.6860 H   0  0  0  0  0  0  0  0  0  0  0  0
   31.4550   48.9040    7.0950 H   0  0  0  0  0  0  0  0  0  0  0  0
   33.1460   45.2170    7.9640 C   0  0  0  0  0  0  0  0  0  0  0  0
   33.7950   44.4920    7.0010 C   0  0  0  0  0  0  0  0  0  0  0  0
   34.1980   43.1820    7.2870 C   0  0  0  0  0  0  0  0  0  0  0  0
   33.9390   42.6240    8.5410 C   0  0  0  0  0  0  0  0  0  0  0  0
   33.2800   43.3670    9.5110 C   0  0  0  0  0  0  0  0  0  0  0  0
   32.8900   44.6700    9.2000 C   0  0  0  0  0  0  0  0  0  0  0  0
   34.3680   41.3230    8.7500 O   0  0  0  0  0  0  0  0  0  0  0  0
   35.2130   40.9600    9.8290 C   0  0  0  0  0  0  0  0  0  0  0  0
   36.3060   40.2250    9.3760 F   0  0  0  0  0  0  0  0  0  0  0  0
   35.6360   42.0720   10.5350 F   0  0  0  0  0  0  0  0  0  0  0  0
   34.5420   40.1510   10.7530 F   0  0  0  0  0  0  0  0  0  0  0  0
   25.2260   49.0710    6.7970 C   0  0  0  0  0  0  0  0  0  0  0  0
   24.4120   47.9530    6.8000 C   0  0  0  0  0  0  0  0  0  0  0  0
   23.0350   48.0470    6.7730 C   0  0  0  0  0  0  0  0  0  0  0  0
   22.4330   49.3030    6.7420 C   0  0  0  0  0  0  0  0  0  0  0  0
   23.2260   50.4260    6.7410 C   0  0  0  0  0  0  0  0  0  0  0  0
   22.9770   51.7370    6.7150 N   0  0  0  0  0  0  0  0  0  0  0  0
   24.6040   50.3000    6.7680 C   0  0  0  0  0  0  0  0  0  0  0  0
   24.0740   52.4460    6.7240 N   0  0  0  0  0  0  0  0  0  0  0  0
   22.0390   52.1380    6.6910 H   0  0  0  0  0  0  0  0  0  0  0  0
   25.0990   51.5640    6.7570 C   0  0  2  0  0  0  0  0  0  0  0  0
   24.1440   53.4630    6.7100 H   0  0  0  0  0  0  0  0  0  0  0  0
   26.4520   51.9390    6.7740 N   0  0  0  0  0  0  0  0  0  0  0  0
   21.0260   49.4600    6.7140 N   0  0  0  0  0  0  0  0  0  0  0  0
   20.2680   49.3370    7.9490 C   0  0  0  0  0  0  0  0  0  0  0  0
   20.2890   49.7460    5.4790 C   0  0  0  0  0  0  0  0  0  0  0  0
   27.2117   49.8011    5.0557 H   0  0  0  0  0  0  0  0  0  0  0  0
   29.5413   49.3605    5.3262 H   0  0  0  0  0  0  0  0  0  0  0  0
   28.8428   47.4267    8.9262 H   0  0  0  0  0  0  0  0  0  0  0  0
   26.5013   47.8566    8.6711 H   0  0  0  0  0  0  0  0  0  0  0  0
   33.9850   44.9062    6.0751 H   0  0  0  0  0  0  0  0  0  0  0  0
   34.6883   42.6266    6.5686 H   0  0  0  0  0  0  0  0  0  0  0  0
   33.0831   42.9648   10.4408 H   0  0  0  0  0  0  0  0  0  0  0  0
   32.3998   45.2346    9.9113 H   0  0  0  0  0  0  0  0  0  0  0  0
   24.8482   47.0180    6.8232 H   0  0  0  0  0  0  0  0  0  0  0  0
   22.4557   47.1930    6.7758 H   0  0  0  0  0  0  0  0  0  0  0  0
   26.5230   52.9564    6.7596 H   0  0  0  0  0  0  0  0  0  0  0  0
   26.9219   51.5538    5.9547 H   0  0  0  0  0  0  0  0  0  0  0  0
   19.2279   49.4835    7.7452 H   0  0  0  0  0  0  0  0  0  0  0  0
   20.6020   50.0755    8.6475 H   0  0  0  0  0  0  0  0  0  0  0  0
   20.4164   48.3615    8.3629 H   0  0  0  0  0  0  0  0  0  0  0  0
   20.9752   49.8075    4.6603 H   0  0  0  0  0  0  0  0  0  0  0  0
   19.7704   50.6764    5.5804 H   0  0  0  0  0  0  0  0  0  0  0  0
   19.5836   48.9627    5.2951 H   0  0  0  0  0  0  0  0  0  0  0  0
  1  6  2  0  0  0  0
  2  3  2  0  0  0  0
  2  1  1  0  0  0  0
  2 39  1  0  0  0  0
  3  4  1  0  0  0  0
  3 40  1  0  0  0  0
  4  7  1  0  0  0  0
  4  5  2  0  0  0  0
  5 41  1  0  0  0  0
  6  5  1  0  0  0  0
  6 42  1  0  0  0  0
  7  8  1  0  0  0  0
  8  9  2  0  0  0  0
  8 10  1  0  0  0  0
 10 13  1  0  0  0  0
 11 10  1  0  0  0  0
 12  7  1  0  0  0  0
 13 18  2  0  0  0  0
 14 15  2  0  0  0  0
 14 13  1  0  0  0  0
 14 43  1  0  0  0  0
 15 16  1  0  0  0  0
 15 44  1  0  0  0  0
 16 19  1  0  0  0  0
 16 17  2  0  0  0  0
 17 45  1  0  0  0  0
 18 17  1  0  0  0  0
 18 46  1  0  0  0  0
 19 20  1  0  0  0  0
 20 22  1  0  0  0  0
 20 23  1  0  0  0  0
 21 20  1  0  0  0  0
 24 25  2  0  0  0  0
 24  1  1  0  0  0  0
 25 47  1  0  0  0  0
 26 25  1  0  0  0  0
 26 48  1  0  0  0  0
 27 26  2  0  0  0  0
 28 27  1  0  0  0  0
 28 30  2  0  0  0  0
 29 31  1  0  0  0  0
 29 28  1  0  0  0  0
 30 24  1  0  0  0  0
 31 33  1  0  0  0  0
 32 29  1  0  0  0  0
 33 30  1  0  0  0  0
 33 35  1  6  0  0  0
 34 31  1  0  0  0  0
 35 49  1  0  0  0  0
 35 50  1  0  0  0  0
 36 27  1  0  0  0  0
 36 37  1  0  0  0  0
 37 51  1  0  0  0  0
 37 52  1  0  0  0  0
 37 53  1  0  0  0  0
 38 36  1  0  0  0  0
 38 54  1  0  0  0  0
 38 55  1  0  0  0  0
 38 56  1  0  0  0  0
M  END
>  <REMARK>
 VINA RESULT:      -7.0      6.039     11.849
  6 active torsions:
  status: ('A' for Active; 'I' for Inactive)
    1  A    between atoms: N_2  and  C_4 
    2  A    between atoms: C_7  and  C_8 
    3  A    between atoms: C_11  and  N_12 
       I    between atoms: N_12  and  C_14 
       I    between atoms: C_14  and  N_16 
    4  A    between atoms: N_16  and  C_18 
    5  A    between atoms: C_21  and  O_22 
    6  A    between atoms: O_22  and  C_23 

>  <TORSDO>
F 6

$$$$
resistance_project/docking/5319283d3047ac55/Q9UM73_L1196M/docked/molecule_0002_out.pdbqt
 OpenBabel09232609183D

 56 59  0  0  1  0  0  0  0  0999 V2000
   25.0420   50.4800    5.1120 C   0  0  0  0  0  0  0  0  0  0  0  0
   24.4470   49.5880    5.9500 C   0  0  0  0  0  0  0  0  0  0  0  0
   25.1730   49.0270    6.9800 C   0  0  0  0  0  0  0  0  0  0  0  0
   26.4990   49.3220    7.2200 C   0  0  0  0  0  0  0  0  0  0  0  0
   27.1000   50.2230    6.3730 C   0  0  0  0  0  0  0  0  0  0  0  0
   26.3880   50.7930    5.3390 C   0  0  0  0  0  0  0  0  0  0  0  0
   27.1870   48.6990    8.3100 N   0  0  0  0  0  0  0  0  0  0  0  0
   28.0650   47.6290    8.1060 C   0  0  0  0  0  0  0  0  0  0  0  0
   28.3000   47.2520    6.9310 O   0  0  0  0  0  0  0  0  0  0  0  0
   28.7310   46.9150    9.1460 N   0  0  0  0  0  0  0  0  0  0  0  0
   28.5420   47.1470   10.1220 H   0  0  0  0  0  0  0  0  0  0  0  0
   27.0330   49.0420    9.2570 H   0  0  0  0  0  0  0  0  0  0  0  0
   29.6660   45.8660    8.8280 C   0  0  0  0  0  0  0  0  0  0  0  0
   30.8500   46.1310    8.1940 C   0  0  0  0  0  0  0  0  0  0  0  0
   31.7250   45.0760    7.9090 C   0  0  0  0  0  0  0  0  0  0  0  0
   31.3890   43.7670    8.2670 C   0  0  0  0  0  0  0  0  0  0  0  0
   30.1870   43.5090    8.9090 C   0  0  0  0  0  0  0  0  0  0  0  0
   29.3330   44.5790    9.1830 C   0  0  0  0  0  0  0  0  0  0  0  0
   32.3050   42.7760    7.9520 O   0  0  0  0  0  0  0  0  0  0  0  0
   33.4850   42.5560    8.7090 C   0  0  0  0  0  0  0  0  0  0  0  0
   34.5590   43.2530    8.1620 F   0  0  0  0  0  0  0  0  0  0  0  0
   33.3050   42.9040   10.0360 F   0  0  0  0  0  0  0  0  0  0  0  0
   33.8440   41.2040    8.7110 F   0  0  0  0  0  0  0  0  0  0  0  0
   24.4120   51.1450    3.9970 C   0  0  0  0  0  0  0  0  0  0  0  0
   24.5390   50.5780    2.7420 C   0  0  0  0  0  0  0  0  0  0  0  0
   23.9660   51.1430    1.6200 C   0  0  0  0  0  0  0  0  0  0  0  0
   23.2340   52.3210    1.7420 C   0  0  0  0  0  0  0  0  0  0  0  0
   23.0960   52.9000    2.9820 C   0  0  0  0  0  0  0  0  0  0  0  0
   22.4800   53.9950    3.4310 N   0  0  0  0  0  0  0  0  0  0  0  0
   23.6820   52.3100    4.0890 C   0  0  0  0  0  0  0  0  0  0  0  0
   22.6250   54.1460    4.7200 N   0  0  0  0  0  0  0  0  0  0  0  0
   21.9560   54.6380    2.8360 H   0  0  0  0  0  0  0  0  0  0  0  0
   23.3740   53.1040    5.1470 C   0  0  1  0  0  0  0  0  0  0  0  0
   22.2490   54.9020    5.2920 H   0  0  0  0  0  0  0  0  0  0  0  0
   23.7530   52.9090    6.4850 N   0  0  0  0  0  0  0  0  0  0  0  0
   22.6250   52.9450    0.6260 N   0  0  0  0  0  0  0  0  0  0  0  0
   23.3530   53.9720   -0.1040 C   0  0  0  0  0  0  0  0  0  0  0  0
   21.2770   52.5980    0.1660 C   0  0  0  0  0  0  0  0  0  0  0  0
   23.4563   49.3322    5.8154 H   0  0  0  0  0  0  0  0  0  0  0  0
   24.7005   48.3528    7.6022 H   0  0  0  0  0  0  0  0  0  0  0  0
   28.0912   50.4744    6.5122 H   0  0  0  0  0  0  0  0  0  0  0  0
   26.8591   51.4677    4.7163 H   0  0  0  0  0  0  0  0  0  0  0  0
   31.0949   47.0979    7.9290 H   0  0  0  0  0  0  0  0  0  0  0  0
   32.6210   45.2652    7.4331 H   0  0  0  0  0  0  0  0  0  0  0  0
   29.9293   42.5467    9.1784 H   0  0  0  0  0  0  0  0  0  0  0  0
   28.4355   44.4014    9.6605 H   0  0  0  0  0  0  0  0  0  0  0  0
   25.0794   49.7046    2.6409 H   0  0  0  0  0  0  0  0  0  0  0  0
   24.0795   50.6951    0.6972 H   0  0  0  0  0  0  0  0  0  0  0  0
   24.3120   52.0591    6.5596 H   0  0  0  0  0  0  0  0  0  0  0  0
   22.9188   52.8193    7.0651 H   0  0  0  0  0  0  0  0  0  0  0  0
   22.7489   54.3326   -0.9102 H   0  0  0  0  0  0  0  0  0  0  0  0
   24.2588   53.5576   -0.4947 H   0  0  0  0  0  0  0  0  0  0  0  0
   23.5866   54.7810    0.5562 H   0  0  0  0  0  0  0  0  0  0  0  0
   21.0269   53.1936   -0.6870 H   0  0  0  0  0  0  0  0  0  0  0  0
   20.5734   52.7849    0.9502 H   0  0  0  0  0  0  0  0  0  0  0  0
   21.2468   51.5623   -0.1009 H   0  0  0  0  0  0  0  0  0  0  0  0
  1  6  2  0  0  0  0
  1  2  1  0  0  0  0
  2  3  2  0  0  0  0
  2 39  1  0  0  0  0
  3  4  1  0  0  0  0
  3 40  1  0  0  0  0
  4  7  1  0  0  0  0
  5  4  2  0  0  0  0
  5 41  1  0  0  0  0
  6  5  1  0  0  0  0
  6 42  1  0  0  0  0
  7 12  1  0  0  0  0
  8  7  1  0  0  0  0
  8 10  1  0  0  0  0
  9  8  2  0  0  0  0
 10 11  1  0  0  0  0
 13 10  1  0  0  0  0
 13 18  2  0  0  0  0
 14 13  1  0  0  0  0
 14 43  1  0  0  0  0
 15 14  2  0  0  0  0
 15 16  1  0  0  0  0
 15 44  1  0  0  0  0
 16 17  2  0  0  0  0
 17 18  1  0  0  0  0
 17 45  1  0  0  0  0
 18 46  1  0  0  0  0
 19 16  1  0  0  0  0
 19 20  1  0  0  0  0
 20 23  1  0  0  0  0
 20 22  1  0  0  0  0
 21 20  1  0  0  0  0
 24 30  1  0  0  0  0
 24  1  1  0  0  0  0
 25 24  2  0  0  0  0
 25 47  1  0  0  0  0
 26 27  2  0  0  0  0
 26 25  1  0  0  0  0
 26 48  1  0  0  0  0
 27 28  1  0  0  0  0
 28 29  1  0  0  0  0
 28 30  2  0  0  0  0
 29 31  1  0  0  0  0
 30 33  1  0  0  0  0
 31 33  1  0  0  0  0
 31 34  1  0  0  0  0
 32 29  1  0  0  0  0
 33 35  1  1  0  0  0
 35 49  1  0  0  0  0
 35 50  1  0  0  0  0
 36 27  1  0  0  0  0
 37 36  1  0  0  0  0
 37 51  1  0  0  0  0
 37 52  1  0  0  0  0
 37 53  1  0  0  0  0
 38 36  1  0  0  0  0
 38 54  1  0  0  0  0
 38 55  1  0  0  0  0
 38 56  1  0  0  0  0
M  END
>  <REMARK>
 VINA RESULT:      -6.9      5.646     11.689
  6 active torsions:
  status: ('A' for Active; 'I' for Inactive)
    1  A    between atoms: N_2  and  C_4 
    2  A    between atoms: C_7  and  C_8 
    3  A    between atoms: C_11  and  N_12 
       I    between atoms: N_12  and  C_14 
       I    between atoms: C_14  and  N_16 
    4  A    between atoms: N_16  and  C_18 
    5  A    between atoms: C_21  and  O_22 
    6  A    between atoms: O_22  and  C_23 

>  <TORSDO>
F 6

$$$$
resistance_project/docking/5319283d3047ac55/Q9UM73_L1196M/docked/molecule_0002_out.pdbqt
 OpenBabel09232609183D

 56 59  0  0  0  0  0  0  0  0999 V2000
   32.9720   47.3990    7.3790 C   0  0  0  0  0  0  0  0  0  0  0  0
   32.2240   48.3530    7.9980 C   0  0  0  0  0  0  0  0  0  0  0  0
   30.8980   48.1050    8.2810 C   0  0  0  0  0  0  0  0  0  0  0  0
   30.2640   46.9200    7.9700 C   0  0  0  0  0  0  0  0  0  0  0  0
   31.0200   45.9560    7.3450 C   0  0  0  0  0  0  0  0  0  0  0  0
   32.3480   46.1870    7.0550 C   0  0  0  0  0  0  0  0  0  0  0  0
   28.8830   46.7360    8.2960 N   0  0  0  0  0  0  0  0  0  0  0  0
   27.8830   47.5250    7.7200 C   0  0  0  0  0  0  0  0  0  0  0  0
   28.2040   48.3700    6.8460 O   0  0  0  0  0  0  0  0  0  0  0  0
   26.4970   47.4470    8.0470 N   0  0  0  0  0  0  0  0  0  0  0  0
   26.1830   46.8120    8.7810 H   0  0  0  0  0  0  0  0  0  0  0  0
   28.6220   46.0130    8.9670 H   0  0  0  0  0  0  0  0  0  0  0  0
   25.5350   48.2620    7.3480 C   0  0  0  0  0  0  0  0  0  0  0  0
   24.3260   47.7590    6.9490 C   0  0  0  0  0  0  0  0  0  0  0  0
   23.4270   48.5930    6.2750 C   0  0  0  0  0  0  0  0  0  0  0  0
   23.7630   49.9240    6.0110 C   0  0  0  0  0  0  0  0  0  0  0  0
   24.9910   50.4240    6.4190 C   0  0  0  0  0  0  0  0  0  0  0  0
   25.8690   49.5720    7.0910 C   0  0  0  0  0  0  0  0  0  0  0  0
   22.8220   50.6870    5.3390 O   0  0  0  0  0  0  0  0  0  0  0  0
   21.9810   51.6200    5.9990 C   0  0  0  0  0  0  0  0  0  0  0  0
   22.6680   52.8020    6.2660 F   0  0  0  0  0  0  0  0  0  0  0  0
   20.8380   51.8770    5.2650 F   0  0  0  0  0  0  0  0  0  0  0  0
   21.5420   51.1250    7.2330 F   0  0  0  0  0  0  0  0  0  0  0  0
   34.3650   47.5140    7.0200 C   0  0  0  0  0  0  0  0  0  0  0  0
   34.6790   48.0370    5.7800 C   0  0  0  0  0  0  0  0  0  0  0  0
   35.9840   48.1890    5.3550 C   0  0  0  0  0  0  0  0  0  0  0  0
   37.0280   47.8060    6.1940 C   0  0  0  0  0  0  0  0  0  0  0  0
   36.7360   47.2850    7.4320 C   0  0  0  0  0  0  0  0  0  0  0  0
   37.4760   46.8330    8.4470 N   0  0  0  0  0  0  0  0  0  0  0  0
   35.4170   47.1450    7.8300 C   0  0  0  0  0  0  0  0  0  0  0  0
   36.7420   46.4230    9.4460 N   0  0  0  0  0  0  0  0  0  0  0  0
   38.4960   46.8120    8.4410 H   0  0  0  0  0  0  0  0  0  0  0  0
   35.4540   46.6100    9.0780 C   0  0  0  0  0  0  0  0  0  0  0  0
   37.0740   46.0370   10.3300 H   0  0  0  0  0  0  0  0  0  0  0  0
   34.3540   46.2860    9.8880 N   0  0  0  0  0  0  0  0  0  0  0  0
   38.3850   47.9380    5.8110 N   0  0  0  0  0  0  0  0  0  0  0  0
   39.0380   49.2320    5.9310 C   0  0  0  0  0  0  0  0  0  0  0  0
   39.1720   46.8150    5.2940 C   0  0  0  0  0  0  0  0  0  0  0  0
   32.6480   49.2583    8.2544 H   0  0  0  0  0  0  0  0  0  0  0  0
   30.3512   48.8441    8.7498 H   0  0  0  0  0  0  0  0  0  0  0  0
   30.5900   45.0528    7.0911 H   0  0  0  0  0  0  0  0  0  0  0  0
   32.8964   45.4484    6.5874 H   0  0  0  0  0  0  0  0  0  0  0  0
   24.0803   46.7757    7.1431 H   0  0  0  0  0  0  0  0  0  0  0  0
   22.5122   48.2240    5.9716 H   0  0  0  0  0  0  0  0  0  0  0  0
   25.2499   51.4049    6.2297 H   0  0  0  0  0  0  0  0  0  0  0  0
   26.7855   49.9311    7.4008 H   0  0  0  0  0  0  0  0  0  0  0  0
   33.9128   48.3235    5.1508 H   0  0  0  0  0  0  0  0  0  0  0  0
   36.1224   49.2281    5.1406 H   0  0  0  0  0  0  0  0  0  0  0  0
   33.4388   46.4464    9.5625 H   0  0  0  0  0  0  0  0  0  0  0  0
   34.4978   45.8984   10.7815 H   0  0  0  0  0  0  0  0  0  0  0  0
   40.0525   49.1516    5.6004 H   0  0  0  0  0  0  0  0  0  0  0  0
   39.0200   49.5472    6.9534 H   0  0  0  0  0  0  0  0  0  0  0  0
   38.5220   49.9492    5.3275 H   0  0  0  0  0  0  0  0  0  0  0  0
   40.1645   47.1474    5.0718 H   0  0  0  0  0  0  0  0  0  0  0  0
   38.7141   46.4388    4.4031 H   0  0  0  0  0  0  0  0  0  0  0  0
   39.2120   46.0389    6.0296 H   0  0  0  0  0  0  0  0  0  0  0  0
  1  2  2  0  0  0  0
  2  3  1  0  0  0  0
  2 39  1  0  0  0  0
  3 40  1  0  0  0  0
  4  3  2  0  0  0  0
  4  7  1  0  0  0  0
  5  4  1  0  0  0  0
  5 41  1  0  0  0  0
  6  5  2  0  0  0  0
  6  1  1  0  0  0  0
  6 42  1  0  0  0  0
  7 12  1  0  0  0  0
  8 10  1  0  0  0  0
  8  7  1  0  0  0  0
  9  8  2  0  0  0  0
 10 11  1  0  0  0  0
 13 10  1  0  0  0  0
 14 13  2  0  0  0  0
 14 43  1  0  0  0  0
 15 14  1  0  0  0  0
 15 44  1  0  0  0  0
 16 15  2  0  0  0  0
 16 17  1  0  0  0  0
 17 18  2  0  0  0  0
 17 45  1  0  0  0  0
 18 13  1  0  0  0  0
 18 46  1  0  0  0  0
 19 20  1  0  0  0  0
 19 16  1  0  0  0  0
 20 21  1  0  0  0  0
 20 23  1  0  0  0  0
 22 20  1  0  0  0  0
 24  1  1  0  0  0  0
 24 30  1  0  0  0  0
 25 24  2  0  0  0  0
 25 47  1  0  0  0  0
 26 25  1  0  0  0  0
 26 27  1  0  0  0  0
 26 48  1  0  0  0  0
 27 28  2  0  0  0  0
 28 30  1  0  0  0  0
 28 29  1  0  0  0  0
 29 31  1  0  0  0  0
 30 33  2  0  0  0  0
 31 34  1  0  0  0  0
 32 29  1  0  0  0  0
 33 31  1  0  0  0  0
 33 35  1  0  0  0  0
 35 49  1  0  0  0  0
 35 50  1  0  0  0  0
 36 37  1  0  0  0  0
 36 27  1  0  0  0  0
 37 51  1  0  0  0  0
 37 52  1  0  0  0  0
 37 53  1  0  0  0  0
 38 36  1  0  0  0  0
 38 54  1  0  0  0  0
 38 55  1  0  0  0  0
 38 56  1  0  0  0  0
M  END
>  <REMARK>
 VINA RESULT:      -6.6      2.454      3.473
  6 active torsions:
  status: ('A' for Active; 'I' for Inactive)
    1  A    between atoms: N_2  and  C_4 
    2  A    between atoms: C_7  and  C_8 
    3  A    between atoms: C_11  and  N_12 
       I    between atoms: N_12  and  C_14 
       I    between atoms: C_14  and  N_16 
    4  A    between atoms: N_16  and  C_18 
    5  A    between atoms: C_21  and  O_22 
    6  A    between atoms: O_22  and  C_23 

>  <TORSDO>
F 6

$$$$
resistance_project/docking/5319283d3047ac55/Q9UM73_L1196M/docked/molecule_0002_out.pdbqt
 OpenBabel09232609183D

 56 59  0  0  1  0  0  0  0  0999 V2000
   27.0310   51.1750    5.5600 C   0  0  0  0  0  0  0  0  0  0  0  0
   26.0600   50.9870    6.4940 C   0  0  0  0  0  0  0  0  0  0  0  0
   26.0530   49.8340    7.2510 C   0  0  0  0  0  0  0  0  0  0  0  0
   26.9940   48.8330    7.1160 C   0  0  0  0  0  0  0  0  0  0  0  0
   27.9750   49.0240    6.1720 C   0  0  0  0  0  0  0  0  0  0  0  0
   27.9970   50.1710    5.4080 C   0  0  0  0  0  0  0  0  0  0  0  0
   26.9210   47.6640    7.9390 N   0  0  0  0  0  0  0  0  0  0  0  0
   28.0250   46.8260    8.1200 C   0  0  0  0  0  0  0  0  0  0  0  0
   29.1230   47.1460    7.5980 O   0  0  0  0  0  0  0  0  0  0  0  0
   28.0090   45.6100    8.8660 N   0  0  0  0  0  0  0  0  0  0  0  0
   27.1360   45.2760    9.2730 H   0  0  0  0  0  0  0  0  0  0  0  0
   26.0420   47.4360    8.4030 H   0  0  0  0  0  0  0  0  0  0  0  0
   29.2190   44.8480    9.0460 C   0  0  0  0  0  0  0  0  0  0  0  0
   29.2750   43.7860    9.9090 C   0  0  0  0  0  0  0  0  0  0  0  0
   30.4750   43.0790   10.0460 C   0  0  0  0  0  0  0  0  0  0  0  0
   31.6020   43.4550    9.3110 C   0  0  0  0  0  0  0  0  0  0  0  0
   31.5360   44.5330    8.4400 C   0  0  0  0  0  0  0  0  0  0  0  0
   30.3270   45.2210    8.3210 C   0  0  0  0  0  0  0  0  0  0  0  0
   32.7530   42.7070    9.5010 O   0  0  0  0  0  0  0  0  0  0  0  0
   33.9020   43.2240   10.1540 C   0  0  0  0  0  0  0  0  0  0  0  0
   34.8060   42.2050   10.4420 F   0  0  0  0  0  0  0  0  0  0  0  0
   34.5080   44.2130    9.4010 F   0  0  0  0  0  0  0  0  0  0  0  0
   33.5690   43.8210   11.3750 F   0  0  0  0  0  0  0  0  0  0  0  0
   27.1670   52.3250    4.6980 C   0  0  0  0  0  0  0  0  0  0  0  0
   26.5580   52.2870    3.4580 C   0  0  0  0  0  0  0  0  0  0  0  0
   26.6310   53.3430    2.5700 C   0  0  0  0  0  0  0  0  0  0  0  0
   27.3380   54.4890    2.9240 C   0  0  0  0  0  0  0  0  0  0  0  0
   27.9490   54.5460    4.1550 C   0  0  0  0  0  0  0  0  0  0  0  0
   28.6830   55.4670    4.7840 N   0  0  0  0  0  0  0  0  0  0  0  0
   27.8590   53.4720    5.0230 C   0  0  0  0  0  0  0  0  0  0  0  0
   29.0600   55.0680    5.9690 N   0  0  0  0  0  0  0  0  0  0  0  0
   28.9200   56.3760    4.3850 H   0  0  0  0  0  0  0  0  0  0  0  0
   28.5550   53.8240    6.1340 C   0  0  2  0  0  0  0  0  0  0  0  0
   29.6250   55.5910    6.6380 H   0  0  0  0  0  0  0  0  0  0  0  0
   28.7450   53.0500    7.2900 N   0  0  0  0  0  0  0  0  0  0  0  0
   27.4460   55.6020    2.0550 N   0  0  0  0  0  0  0  0  0  0  0  0
   28.5920   55.7030    1.1650 C   0  0  0  0  0  0  0  0  0  0  0  0
   26.4430   56.6690    2.0110 C   0  0  0  0  0  0  0  0  0  0  0  0
   25.3315   51.7042    6.6356 H   0  0  0  0  0  0  0  0  0  0  0  0
   25.3068   49.7136    7.9536 H   0  0  0  0  0  0  0  0  0  0  0  0
   28.7005   48.3031    6.0343 H   0  0  0  0  0  0  0  0  0  0  0  0
   28.7437   50.2936    4.7063 H   0  0  0  0  0  0  0  0  0  0  0  0
   28.4419   43.5103   10.4520 H   0  0  0  0  0  0  0  0  0  0  0  0
   30.5276   42.2765   10.6927 H   0  0  0  0  0  0  0  0  0  0  0  0
   32.3623   44.8199    7.8923 H   0  0  0  0  0  0  0  0  0  0  0  0
   30.2633   46.0248    7.6768 H   0  0  0  0  0  0  0  0  0  0  0  0
   26.0314   51.4421    3.1864 H   0  0  0  0  0  0  0  0  0  0  0  0
   26.1650   53.2828    1.6512 H   0  0  0  0  0  0  0  0  0  0  0  0
   28.2715   52.1532    7.1804 H   0  0  0  0  0  0  0  0  0  0  0  0
   28.3590   53.5420    8.0958 H   0  0  0  0  0  0  0  0  0  0  0  0
   28.5143   56.5980    0.5837 H   0  0  0  0  0  0  0  0  0  0  0  0
   28.6131   54.8549    0.5130 H   0  0  0  0  0  0  0  0  0  0  0  0
   29.4916   55.7305    1.7436 H   0  0  0  0  0  0  0  0  0  0  0  0
   26.7316   57.4001    1.2850 H   0  0  0  0  0  0  0  0  0  0  0  0
   26.3713   57.1311    2.9734 H   0  0  0  0  0  0  0  0  0  0  0  0
   25.4935   56.2551    1.7425 H   0  0  0  0  0  0  0  0  0  0  0  0
  1  2  1  0  0  0  0
  2  3  2  0  0  0  0
  2 39  1  0  0  0  0
  3 40  1  0  0  0  0
  4  3  1  0  0  0  0
  4  7  1  0  0  0  0
  5  4  2  0  0  0  0
  5 41  1  0  0  0  0
  6  1  2  0  0  0  0
  6  5  1  0  0  0  0
  6 42  1  0  0  0  0
  7  8  1  0  0  0  0
  7 12  1  0  0  0  0
  8 10  1  0  0  0  0
  9  8  2  0  0  0  0
 10 13  1  0  0  0  0
 10 11  1  0  0  0  0
 13 14  2  0  0  0  0
 14 15  1  0  0  0  0
 14 43  1  0  0  0  0
 15 44  1  0  0  0  0
 16 19  1  0  0  0  0
 16 15  2  0  0  0  0
 17 16  1  0  0  0  0
 17 45  1  0  0  0  0
 18 17  2  0  0  0  0
 18 13  1  0  0  0  0
 18 46  1  0  0  0  0
 19 20  1  0  0  0  0
 20 21  1  0  0  0  0
 20 23  1  0  0  0  0
 22 20  1  0  0  0  0
 24 30  1  0  0  0  0
 24  1  1  0  0  0  0
 25 24  2  0  0  0  0
 25 47  1  0  0  0  0
 26 27  2  0  0  0  0
 26 25  1  0  0  0  0
 26 48  1  0  0  0  0
 27 28  1  0  0  0  0
 28 29  1  0  0  0  0
 28 30  2  0  0  0  0
 29 31  1  0  0  0  0
 30 33  1  0  0  0  0
 31 33  1  0  0  0  0
 31 34  1  0  0  0  0
 32 29  1  0  0  0  0
 33 35  1  6  0  0  0
 35 49  1  0  0  0  0
 35 50  1  0  0  0  0
 36 27  1  0  0  0  0
 37 36  1  0  0  0  0
 37 51  1  0  0  0  0
 37 52  1  0  0  0  0
 37 53  1  0  0  0  0
 38 36  1  0  0  0  0
 38 54  1  0  0  0  0
 38 55  1  0  0  0  0
 38 56  1  0  0  0  0
M  END
>  <REMARK>
 VINA RESULT:      -6.6      6.140     10.777
  6 active torsions:
  status: ('A' for Active; 'I' for Inactive)
    1  A    between atoms: N_2  and  C_4 
    2  A    between atoms: C_7  and  C_8 
    3  A    between atoms: C_11  and  N_12 
       I    between atoms: N_12  and  C_14 
       I    between atoms: C_14  and  N_16 
    4  A    between atoms: N_16  and  C_18 
    5  A    between atoms: C_21  and  O_22 
    6  A    between atoms: O_22  and  C_23 

>  <TORSDO>
F 6

$$$$
resistance_project/docking/5319283d3047ac55/Q9UM73_L1196M/docked/molecule_0002_out.pdbqt
 OpenBabel09232609183D

 56 59  0  0  0  0  0  0  0  0999 V2000
   24.7640   51.2450    4.7500 C   0  0  0  0  0  0  0  0  0  0  0  0
   24.2850   50.1200    5.3480 C   0  0  0  0  0  0  0  0  0  0  0  0
   24.9750   49.5600    6.4020 C   0  0  0  0  0  0  0  0  0  0  0  0
   26.1510   50.0810    6.9010 C   0  0  0  0  0  0  0  0  0  0  0  0
   26.6350   51.2170    6.2970 C   0  0  0  0  0  0  0  0  0  0  0  0
   25.9570   51.7910    5.2420 C   0  0  0  0  0  0  0  0  0  0  0  0
   26.8110   49.4420    7.9990 N   0  0  0  0  0  0  0  0  0  0  0  0
   27.6710   48.3560    7.8060 C   0  0  0  0  0  0  0  0  0  0  0  0
   27.9160   47.9780    6.6330 O   0  0  0  0  0  0  0  0  0  0  0  0
   28.3070   47.6270    8.8530 N   0  0  0  0  0  0  0  0  0  0  0  0
   28.1090   47.8590    9.8270 H   0  0  0  0  0  0  0  0  0  0  0  0
   26.6490   49.7860    8.9450 H   0  0  0  0  0  0  0  0  0  0  0  0
   29.2270   46.5610    8.5460 C   0  0  0  0  0  0  0  0  0  0  0  0
   28.8700   45.2460    8.6800 C   0  0  0  0  0  0  0  0  0  0  0  0
   29.8020   44.2490    8.3670 C   0  0  0  0  0  0  0  0  0  0  0  0
   31.0820   44.5950    7.9250 C   0  0  0  0  0  0  0  0  0  0  0  0
   31.4340   45.9310    7.7930 C   0  0  0  0  0  0  0  0  0  0  0  0
   30.4870   46.9050    8.1110 C   0  0  0  0  0  0  0  0  0  0  0  0
   31.9480   43.5540    7.6360 O   0  0  0  0  0  0  0  0  0  0  0  0
   32.9260   43.0940    8.5550 C   0  0  0  0  0  0  0  0  0  0  0  0
   33.9860   43.9940    8.6390 F   0  0  0  0  0  0  0  0  0  0  0  0
   32.3790   42.8710    9.8050 F   0  0  0  0  0  0  0  0  0  0  0  0
   33.4710   41.8710    8.1500 F   0  0  0  0  0  0  0  0  0  0  0  0
   24.1550   51.9410    3.6420 C   0  0  0  0  0  0  0  0  0  0  0  0
   23.1040   52.7990    3.9090 C   0  0  0  0  0  0  0  0  0  0  0  0
   22.4650   53.5100    2.9120 C   0  0  0  0  0  0  0  0  0  0  0  0
   22.8830   53.3670    1.5910 C   0  0  0  0  0  0  0  0  0  0  0  0
   23.9270   52.5190    1.3060 C   0  0  0  0  0  0  0  0  0  0  0  0
   24.5530   52.1630    0.1820 N   0  0  0  0  0  0  0  0  0  0  0  0
   24.5480   51.8190    2.3270 C   0  0  0  0  0  0  0  0  0  0  0  0
   25.5110   51.3040    0.4050 N   0  0  0  0  0  0  0  0  0  0  0  0
   24.3110   52.5210   -0.7420 H   0  0  0  0  0  0  0  0  0  0  0  0
   25.5220   51.0780    1.7390 C   0  0  0  0  0  0  0  0  0  0  0  0
   26.1300   50.8860   -0.2900 H   0  0  0  0  0  0  0  0  0  0  0  0
   26.4160   50.2030    2.3760 N   0  0  0  0  0  0  0  0  0  0  0  0
   22.2650   54.0700    0.5290 N   0  0  0  0  0  0  0  0  0  0  0  0
   22.6380   55.4530    0.2740 C   0  0  0  0  0  0  0  0  0  0  0  0
   21.2530   53.4600   -0.3390 C   0  0  0  0  0  0  0  0  0  0  0  0
   23.4093   49.6882    5.0139 H   0  0  0  0  0  0  0  0  0  0  0  0
   24.5923   48.7076    6.8401 H   0  0  0  0  0  0  0  0  0  0  0  0
   27.5118   51.6433    6.6353 H   0  0  0  0  0  0  0  0  0  0  0  0
   26.3380   52.6442    4.8039 H   0  0  0  0  0  0  0  0  0  0  0  0
   27.9249   44.9926    9.0079 H   0  0  0  0  0  0  0  0  0  0  0  0
   29.5428   43.2547    8.4631 H   0  0  0  0  0  0  0  0  0  0  0  0
   32.3759   46.1982    7.4667 H   0  0  0  0  0  0  0  0  0  0  0  0
   30.7358   47.9023    8.0184 H   0  0  0  0  0  0  0  0  0  0  0  0
   22.7868   52.9118    4.8846 H   0  0  0  0  0  0  0  0  0  0  0  0
   21.4326   53.2307    2.9436 H   0  0  0  0  0  0  0  0  0  0  0  0
   27.0866   49.7134    1.8471 H   0  0  0  0  0  0  0  0  0  0  0  0
   26.3724   50.0790    3.3517 H   0  0  0  0  0  0  0  0  0  0  0  0
   22.0777   55.8260   -0.5578 H   0  0  0  0  0  0  0  0  0  0  0  0
   23.6834   55.5053    0.0521 H   0  0  0  0  0  0  0  0  0  0  0  0
   22.4272   56.0448    1.1402 H   0  0  0  0  0  0  0  0  0  0  0  0
   20.9294   54.1748   -1.0665 H   0  0  0  0  0  0  0  0  0  0  0  0
   20.4169   53.1490    0.2519 H   0  0  0  0  0  0  0  0  0  0  0  0
   21.6741   52.6110   -0.8358 H   0  0  0  0  0  0  0  0  0  0  0  0
  1  6  2  0  0  0  0
  1  2  1  0  0  0  0
  2  3  2  0  0  0  0
  2 39  1  0  0  0  0
  3  4  1  0  0  0  0
  3 40  1  0  0  0  0
  4  7  1  0  0  0  0
  5  4  2  0  0  0  0
  5 41  1  0  0  0  0
  6  5  1  0  0  0  0
  6 42  1  0  0  0  0
  7 12  1  0  0  0  0
  8  7  1  0  0  0  0
  8 10  1  0  0  0  0
  9  8  2  0  0  0  0
 10 11  1  0  0  0  0
 13 14  1  0  0  0  0
 13 10  1  0  0  0  0
 14 43  1  0  0  0  0
 15 14  2  0  0  0  0
 15 44  1  0  0  0  0
 16 15  1  0  0  0  0
 17 16  2  0  0  0  0
 17 18  1  0  0  0  0
 17 45  1  0  0  0  0
 18 13  2  0  0  0  0
 18 46  1  0  0  0  0
 19 16  1  0  0  0  0
 19 20  1  0  0  0  0
 20 21  1  0  0  0  0
 20 22  1  0  0  0  0
 23 20  1  0  0  0  0
 24 25  2  0  0  0  0
 24  1  1  0  0  0  0
 25 47  1  0  0  0  0
 26 25  1  0  0  0  0
 26 48  1  0  0  0  0
 27 26  1  0  0  0  0
 28 27  2  0  0  0  0
 28 30  1  0  0  0  0
 29 31  1  0  0  0  0
 29 28  1  0  0  0  0
 30 24  1  0  0  0  0
 31 33  1  0  0  0  0
 32 29  1  0  0  0  0
 33 30  2  0  0  0  0
 33 35  1  0  0  0  0
 34 31  1  0  0  0  0
 35 49  1  0  0  0  0
 35 50  1  0  0  0  0
 36 27  1  0  0  0  0
 37 36  1  0  0  0  0
 37 51  1  0  0  0  0
 37 52  1  0  0  0  0
 37 53  1  0  0  0  0
 38 36  1  0  0  0  0
 38 54  1  0  0  0  0
 38 55  1  0  0  0  0
 38 56  1  0  0  0  0
M  END
>  <REMARK>
 VINA RESULT:      -6.6      5.521     11.520
  6 active torsions:
  status: ('A' for Active; 'I' for Inactive)
    1  A    between atoms: N_2  and  C_4 
    2  A    between atoms: C_7  and  C_8 
    3  A    between atoms: C_11  and  N_12 
       I    between atoms: N_12  and  C_14 
       I    between atoms: C_14  and  N_16 
    4  A    between atoms: N_16  and  C_18 
    5  A    between atoms: C_21  and  O_22 
    6  A    between atoms: O_22  and  C_23 

>  <TORSDO>
F 6

$$$$
