resistance_project/docking/5319283d3047ac55/Q9UM73_L1196M/docked/molecule_0006_out.pdbqt
 OpenBabel09232609193D

 51 55  0  0  1  0  0  0  0  0999 V2000
   28.9670   45.8460    8.4250 C   0  0  0  0  0  0  0  0  0  0  0  0
   29.7390   46.2520    7.3800 C   0  0  0  0  0  0  0  0  0  0  0  0
   31.0480   45.7890    7.1550 C   0  0  0  0  0  0  0  0  0  0  0  0
   31.5760   44.8750    8.0410 C   0  0  0  0  0  0  0  0  0  0  0  0
   30.7680   44.4930    9.0750 C   0  0  0  0  0  0  0  0  0  0  0  0
   29.4990   44.9320    9.3070 C   0  0  0  0  0  0  0  0  0  0  0  0
   32.9600   44.3430    7.8580 C   0  0  0  0  0  0  0  0  0  0  0  0
   33.5780   44.8770    6.7420 C   0  0  0  0  0  0  0  0  0  0  0  0
   33.0450   45.8600    5.7670 C   0  0  0  0  0  0  0  0  0  0  0  0
   31.7130   46.3400    5.9840 C   0  0  0  0  0  0  0  0  0  0  0  0
   35.2360   44.0900    6.7250 S   0  0  0  0  0  0  0  0  0  0  0  0
   34.9370   43.1350    8.2010 C   0  0  0  0  0  0  0  0  0  0  0  0
   33.6480   43.4640    8.5930 C   0  0  0  0  0  0  0  0  0  0  0  0
   33.2980   42.7530    9.7730 C   0  0  2  0  0  0  0  0  0  0  0  0
   32.0760   42.8580   10.4230 N   0  0  0  0  0  0  0  0  0  0  0  0
   34.2010   41.9010   10.3320 N   0  0  0  0  0  0  0  0  0  0  0  0
   33.9160   41.4080   11.1780 H   0  0  0  0  0  0  0  0  0  0  0  0
   35.4240   41.6580    9.8680 C   0  0  0  0  0  0  0  0  0  0  0  0
   35.7800   42.3300    8.7370 N   0  0  0  0  0  0  0  0  0  0  0  0
   36.7020   42.1930    8.3220 H   0  0  0  0  0  0  0  0  0  0  0  0
   27.6510   46.3530    8.5940 N   0  0  0  0  0  0  0  0  0  0  0  0
   27.2150   47.4130    7.7440 C   0  0  0  0  0  0  0  0  0  0  0  0
   25.8620   47.8540    7.9380 N   0  0  0  0  0  0  0  0  0  0  0  0
   27.9700   47.9270    6.8780 O   0  0  0  0  0  0  0  0  0  0  0  0
   25.2600   47.3740    8.6070 H   0  0  0  0  0  0  0  0  0  0  0  0
   27.0320   45.9690    9.3080 H   0  0  0  0  0  0  0  0  0  0  0  0
   25.3600   48.9620    7.1990 C   0  0  0  0  0  0  0  0  0  0  0  0
   24.1380   48.8090    6.5830 C   0  0  0  0  0  0  0  0  0  0  0  0
   23.6460   49.8790    5.8650 C   0  0  0  0  0  0  0  0  0  0  0  0
   24.3560   51.0590    5.7710 C   0  0  0  0  0  0  0  0  0  0  0  0
   25.5760   51.1680    6.4050 C   0  0  0  0  0  0  0  0  0  0  0  0
   26.1050   50.1240    7.1310 C   0  0  0  0  0  0  0  0  0  0  0  0
   26.2920   52.4800    6.2570 C   0  0  0  0  0  0  0  0  0  0  0  0
   27.1660   52.7480    7.4600 C   0  0  0  0  0  0  0  0  0  0  0  0
   29.3425   46.9364    6.7171 H   0  0  0  0  0  0  0  0  0  0  0  0
   31.1552   43.8079    9.7426 H   0  0  0  0  0  0  0  0  0  0  0  0
   28.9556   44.5914   10.1155 H   0  0  0  0  0  0  0  0  0  0  0  0
   33.6099   46.1842    4.9665 H   0  0  0  0  0  0  0  0  0  0  0  0
   31.2599   47.0240    5.3580 H   0  0  0  0  0  0  0  0  0  0  0  0
   31.4804   43.5179    9.9228 H   0  0  0  0  0  0  0  0  0  0  0  0
   32.2252   43.1895   11.3760 H   0  0  0  0  0  0  0  0  0  0  0  0
   36.1226   41.9171   10.6359 H   0  0  0  0  0  0  0  0  0  0  0  0
   23.6094   47.9257    6.6559 H   0  0  0  0  0  0  0  0  0  0  0  0
   22.7331   49.7961    5.3908 H   0  0  0  0  0  0  0  0  0  0  0  0
   23.9773   51.8527    5.2310 H   0  0  0  0  0  0  0  0  0  0  0  0
   27.0186   50.2059    7.6040 H   0  0  0  0  0  0  0  0  0  0  0  0
   25.5712   53.2653    6.1641 H   0  0  0  0  0  0  0  0  0  0  0  0
   26.9097   52.4391    5.3843 H   0  0  0  0  0  0  0  0  0  0  0  0
   26.5585   52.7910    8.3397 H   0  0  0  0  0  0  0  0  0  0  0  0
   27.6738   53.6810    7.3312 H   0  0  0  0  0  0  0  0  0  0  0  0
   27.8847   51.9618    7.5610 H   0  0  0  0  0  0  0  0  0  0  0  0
  1 21  1  0  0  0  0
  1  6  1  0  0  0  0
  2  1  2  0  0  0  0
  2 35  1  0  0  0  0
  3  2  1  0  0  0  0
  3  4  2  0  0  0  0
  4  5  1  0  0  0  0
  5  6  2  0  0  0  0
  5 36  1  0  0  0  0
  6 37  1  0  0  0  0
  7  4  1  0  0  0  0
  7 13  1  0  0  0  0
  8  7  2  0  0  0  0
  9 10  2  0  0  0  0
  9  8  1  0  0  0  0
  9 38  1  0  0  0  0
 10  3  1  0  0  0  0
 10 39  1  0  0  0  0
 11  8  1  0  0  0  0
 11 12  1  0  0  0  0
 12 13  2  0  0  0  0
 12 19  1  0  0  0  0
 13 14  1  0  0  0  0
 14 16  1  0  0  0  0
 14 15  1  1  0  0  0
 15 40  1  0  0  0  0
 15 41  1  0  0  0  0
 16 17  1  0  0  0  0
 18 16  1  0  0  0  0
 18 42  1  0  0  0  0
 19 18  1  0  0  0  0
 20 19  1  0  0  0  0
 21 26  1  0  0  0  0
 22 23  1  0  0  0  0
 22 21  1  0  0  0  0
 23 25  1  0  0  0  0
 24 22  2  0  0  0  0
 27 23  1  0  0  0  0
 28 27  2  0  0  0  0
 28 43  1  0  0  0  0
 29 28  1  0  0  0  0
 29 44  1  0  0  0  0
 30 29  2  0  0  0  0
 30 31  1  0  0  0  0
 30 45  1  0  0  0  0
 31 32  2  0  0  0  0
 32 27  1  0  0  0  0
 32 46  1  0  0  0  0
 33 31  1  0  0  0  0
 33 34  1  0  0  0  0
 33 47  1  0  0  0  0
 33 48  1  0  0  0  0
 34 49  1  0  0  0  0
 34 50  1  0  0  0  0
 34 51  1  0  0  0  0
M  END
>  <MODEL>
1

>  <REMARK>
 VINA RESULT:      -9.5      0.000      0.000
  3 active torsions:
  status: ('A' for Active; 'I' for Inactive)
    1  A    between atoms: C_2  and  C_3 
    2  A    between atoms: C_7  and  N_8 
       I    between atoms: N_8  and  C_10 
       I    between atoms: C_10  and  N_12 
    3  A    between atoms: N_12  and  C_14 

>  <TORSDO>
F 3

$$$$
resistance_project/docking/5319283d3047ac55/Q9UM73_L1196M/docked/molecule_0006_out.pdbqt
 OpenBabel09232609193D

 51 55  0  0  1  0  0  0  0  0999 V2000
   27.9820   48.7040    7.1790 C   0  0  0  0  0  0  0  0  0  0  0  0
   27.7350   47.7000    8.0640 C   0  0  0  0  0  0  0  0  0  0  0  0
   28.6290   46.6430    8.3080 C   0  0  0  0  0  0  0  0  0  0  0  0
   29.8190   46.6230    7.6140 C   0  0  0  0  0  0  0  0  0  0  0  0
   30.0290   47.6490    6.7360 C   0  0  0  0  0  0  0  0  0  0  0  0
   29.1730   48.6810    6.4880 C   0  0  0  0  0  0  0  0  0  0  0  0
   30.8120   45.5280    7.8280 C   0  0  0  0  0  0  0  0  0  0  0  0
   30.3770   44.6070    8.7640 C   0  0  0  0  0  0  0  0  0  0  0  0
   29.1060   44.5930    9.5300 C   0  0  0  0  0  0  0  0  0  0  0  0
   28.1860   45.6650    9.2900 C   0  0  0  0  0  0  0  0  0  0  0  0
   31.7370   43.3790    8.8550 S   0  0  0  0  0  0  0  0  0  0  0  0
   32.7430   44.2140    7.6440 C   0  0  0  0  0  0  0  0  0  0  0  0
   32.0070   45.3280    7.2640 C   0  0  0  0  0  0  0  0  0  0  0  0
   32.7200   46.0780    6.2900 C   0  0  2  0  0  0  0  0  0  0  0  0
   32.2590   47.2490    5.7040 N   0  0  0  0  0  0  0  0  0  0  0  0
   33.9440   45.6460    5.8790 N   0  0  0  0  0  0  0  0  0  0  0  0
   34.4270   46.2090    5.1780 H   0  0  0  0  0  0  0  0  0  0  0  0
   34.5640   44.5510    6.3130 C   0  0  0  0  0  0  0  0  0  0  0  0
   33.8980   43.8170    7.2480 N   0  0  0  0  0  0  0  0  0  0  0  0
   34.3110   42.9660    7.6290 H   0  0  0  0  0  0  0  0  0  0  0  0
   27.0350   49.7450    6.9790 N   0  0  0  0  0  0  0  0  0  0  0  0
   25.6740   49.3910    6.7430 C   0  0  0  0  0  0  0  0  0  0  0  0
   24.7600   50.4870    6.5890 N   0  0  0  0  0  0  0  0  0  0  0  0
   25.2990   48.1910    6.6750 O   0  0  0  0  0  0  0  0  0  0  0  0
   25.0880   51.4460    6.7110 H   0  0  0  0  0  0  0  0  0  0  0  0
   27.3230   50.7230    7.0030 H   0  0  0  0  0  0  0  0  0  0  0  0
   23.3960   50.2400    6.2660 C   0  0  0  0  0  0  0  0  0  0  0  0
   23.0580   50.2000    4.9320 C   0  0  0  0  0  0  0  0  0  0  0  0
   21.7380   49.9600    4.6140 C   0  0  0  0  0  0  0  0  0  0  0  0
   20.7930   49.7660    5.6010 C   0  0  0  0  0  0  0  0  0  0  0  0
   21.1760   49.8140    6.9250 C   0  0  0  0  0  0  0  0  0  0  0  0
   22.4830   50.0520    7.2870 C   0  0  0  0  0  0  0  0  0  0  0  0
   20.0930   49.5960    7.9430 C   0  0  0  0  0  0  0  0  0  0  0  0
   20.0620   48.1520    8.3860 C   0  0  0  0  0  0  0  0  0  0  0  0
   26.8436   47.7155    8.5838 H   0  0  0  0  0  0  0  0  0  0  0  0
   30.9180   47.6421    6.2120 H   0  0  0  0  0  0  0  0  0  0  0  0
   28.9369   48.6569    5.4447 H   0  0  0  0  0  0  0  0  0  0  0  0
   29.3566   44.6104   10.5701 H   0  0  0  0  0  0  0  0  0  0  0  0
   27.2787   45.7378    9.7764 H   0  0  0  0  0  0  0  0  0  0  0  0
   32.9526   47.5927    5.0398 H   0  0  0  0  0  0  0  0  0  0  0  0
   32.1024   47.9519    6.4264 H   0  0  0  0  0  0  0  0  0  0  0  0
   35.4990   44.8512    6.7379 H   0  0  0  0  0  0  0  0  0  0  0  0
   23.7672   50.3445    4.1964 H   0  0  0  0  0  0  0  0  0  0  0  0
   21.4523   49.9249    3.6230 H   0  0  0  0  0  0  0  0  0  0  0  0
   19.8081   49.5865    5.3504 H   0  0  0  0  0  0  0  0  0  0  0  0
   22.7688   50.0885    8.2780 H   0  0  0  0  0  0  0  0  0  0  0  0
   19.1480   49.8516    7.5112 H   0  0  0  0  0  0  0  0  0  0  0  0
   20.2905   50.2136    8.7941 H   0  0  0  0  0  0  0  0  0  0  0  0
   19.8651   47.5242    7.5422 H   0  0  0  0  0  0  0  0  0  0  0  0
   19.2916   48.0195    9.1166 H   0  0  0  0  0  0  0  0  0  0  0  0
   21.0074   47.8895    8.8129 H   0  0  0  0  0  0  0  0  0  0  0  0
  1  2  2  0  0  0  0
  2  3  1  0  0  0  0
  2 35  1  0  0  0  0
  3 10  2  0  0  0  0
  4  7  1  0  0  0  0
  4  3  1  0  0  0  0
  5  4  2  0  0  0  0
  5 36  1  0  0  0  0
  6  5  1  0  0  0  0
  6  1  1  0  0  0  0
  6 37  1  0  0  0  0
  7  8  2  0  0  0  0
  8 11  1  0  0  0  0
  8  9  1  0  0  0  0
  9 38  1  0  0  0  0
 10  9  1  0  0  0  0
 10 39  1  0  0  0  0
 12 11  1  0  0  0  0
 13 12  2  0  0  0  0
 13  7  1  0  0  0  0
 14 15  1  6  0  0  0
 14 13  1  0  0  0  0
 15 40  1  0  0  0  0
 15 41  1  0  0  0  0
 16 14  1  0  0  0  0
 16 18  1  0  0  0  0
 17 16  1  0  0  0  0
 18 19  1  0  0  0  0
 18 42  1  0  0  0  0
 19 20  1  0  0  0  0
 19 12  1  0  0  0  0
 21 26  1  0  0  0  0
 21  1  1  0  0  0  0
 22 21  1  0  0  0  0
 23 25  1  0  0  0  0
 23 22  1  0  0  0  0
 24 22  2  0  0  0  0
 27 23  1  0  0  0  0
 27 32  2  0  0  0  0
 28 27  1  0  0  0  0
 28 43  1  0  0  0  0
 29 28  2  0  0  0  0
 29 30  1  0  0  0  0
 29 44  1  0  0  0  0
 30 31  2  0  0  0  0
 30 45  1  0  0  0  0
 31 32  1  0  0  0  0
 31 33  1  0  0  0  0
 32 46  1  0  0  0  0
 33 34  1  0  0  0  0
 33 47  1  0  0  0  0
 33 48  1  0  0  0  0
 34 49  1  0  0  0  0
 34 50  1  0  0  0  0
 34 51  1  0  0  0  0
M  END
>  <REMARK>
 VINA RESULT:      -9.4      2.474      4.214
  3 active torsions:
  status: ('A' for Active; 'I' for Inactive)
    1  A    between atoms: C_2  and  C_3 
    2  A    between atoms: C_7  and  N_8 
       I    between atoms: N_8  and  C_10 
       I    between atoms: C_10  and  N_12 
    3  A    between atoms: N_12  and  C_14 

>  <TORSDO>
F 3

$$$$
resistance_project/docking/5319283d3047ac55/Q9UM73_L1196M/docked/molecule_0006_out.pdbqt
 OpenBabel09232609193D

 51 55  0  0  1  0  0  0  0  0999 V2000
   27.5930   48.6670    6.9290 C   0  0  0  0  0  0  0  0  0  0  0  0
   27.3930   47.6720    7.8350 C   0  0  0  0  0  0  0  0  0  0  0  0
   28.3480   46.6830    8.1260 C   0  0  0  0  0  0  0  0  0  0  0  0
   29.5520   46.7240    7.4580 C   0  0  0  0  0  0  0  0  0  0  0  0
   29.7130   47.7390    6.5560 C   0  0  0  0  0  0  0  0  0  0  0  0
   28.7970   48.7050    6.2630 C   0  0  0  0  0  0  0  0  0  0  0  0
   30.6100   45.7030    7.7220 C   0  0  0  0  0  0  0  0  0  0  0  0
   30.2150   44.7800    8.6730 C   0  0  0  0  0  0  0  0  0  0  0  0
   28.9320   44.7020    9.4140 C   0  0  0  0  0  0  0  0  0  0  0  0
   27.9490   45.7040    9.1260 C   0  0  0  0  0  0  0  0  0  0  0  0
   31.6510   43.6480    8.8260 S   0  0  0  0  0  0  0  0  0  0  0  0
   32.6260   44.5160    7.6120 C   0  0  0  0  0  0  0  0  0  0  0  0
   31.8280   45.5680    7.1870 C   0  0  0  0  0  0  0  0  0  0  0  0
   32.5110   46.3380    6.2080 C   0  0  2  0  0  0  0  0  0  0  0  0
   31.9870   47.4600    5.5810 N   0  0  0  0  0  0  0  0  0  0  0  0
   33.7690   45.9780    5.8330 N   0  0  0  0  0  0  0  0  0  0  0  0
   34.2290   46.5530    5.1270 H   0  0  0  0  0  0  0  0  0  0  0  0
   34.4500   44.9380    6.3100 C   0  0  0  0  0  0  0  0  0  0  0  0
   33.8130   44.1860    7.2510 N   0  0  0  0  0  0  0  0  0  0  0  0
   34.2720   43.3740    7.6630 H   0  0  0  0  0  0  0  0  0  0  0  0
   26.5840   49.6370    6.6820 N   0  0  0  0  0  0  0  0  0  0  0  0
   26.9070   51.0160    6.8560 C   0  0  0  0  0  0  0  0  0  0  0  0
   25.8580   51.9480    6.5530 N   0  0  0  0  0  0  0  0  0  0  0  0
   28.0430   51.3890    7.2500 O   0  0  0  0  0  0  0  0  0  0  0  0
   24.9700   51.6120    6.1770 H   0  0  0  0  0  0  0  0  0  0  0  0
   25.6490   49.3540    6.3880 H   0  0  0  0  0  0  0  0  0  0  0  0
   26.0530   53.3400    6.7750 C   0  0  0  0  0  0  0  0  0  0  0  0
   26.3220   54.1240    5.6760 C   0  0  0  0  0  0  0  0  0  0  0  0
   26.5120   55.4740    5.8850 C   0  0  0  0  0  0  0  0  0  0  0  0
   26.4330   56.0150    7.1520 C   0  0  0  0  0  0  0  0  0  0  0  0
   26.1610   55.1920    8.2250 C   0  0  0  0  0  0  0  0  0  0  0  0
   25.9650   53.8390    8.0610 C   0  0  0  0  0  0  0  0  0  0  0  0
   26.0910   55.8500    9.5730 C   0  0  0  0  0  0  0  0  0  0  0  0
   27.3790   56.5820    9.8750 C   0  0  0  0  0  0  0  0  0  0  0  0
   26.4911   47.6419    8.3357 H   0  0  0  0  0  0  0  0  0  0  0  0
   30.6116   47.7773    6.0500 H   0  0  0  0  0  0  0  0  0  0  0  0
   28.5856   48.6382    5.2162 H   0  0  0  0  0  0  0  0  0  0  0  0
   29.1586   44.7637   10.4579 H   0  0  0  0  0  0  0  0  0  0  0  0
   27.0286   45.7294    9.5921 H   0  0  0  0  0  0  0  0  0  0  0  0
   32.6710   47.8317    4.9219 H   0  0  0  0  0  0  0  0  0  0  0  0
   31.7684   48.1694    6.2805 H   0  0  0  0  0  0  0  0  0  0  0  0
   35.3534   45.3107    6.7457 H   0  0  0  0  0  0  0  0  0  0  0  0
   26.3794   53.7163    4.7297 H   0  0  0  0  0  0  0  0  0  0  0  0
   26.7163   56.0888    5.0817 H   0  0  0  0  0  0  0  0  0  0  0  0
   26.5762   57.0269    7.2956 H   0  0  0  0  0  0  0  0  0  0  0  0
   25.7611   53.2237    8.8640 H   0  0  0  0  0  0  0  0  0  0  0  0
   25.9275   55.1027   10.3211 H   0  0  0  0  0  0  0  0  0  0  0  0
   25.2858   56.5546    9.5717 H   0  0  0  0  0  0  0  0  0  0  0  0
   28.1921   55.8864    9.8789 H   0  0  0  0  0  0  0  0  0  0  0  0
   27.3063   57.0510   10.8340 H   0  0  0  0  0  0  0  0  0  0  0  0
   27.5502   57.3266    9.1259 H   0  0  0  0  0  0  0  0  0  0  0  0
  1  2  2  0  0  0  0
  2  3  1  0  0  0  0
  2 35  1  0  0  0  0
  3 10  2  0  0  0  0
  4  7  1  0  0  0  0
  4  3  1  0  0  0  0
  5  4  2  0  0  0  0
  5 36  1  0  0  0  0
  6  5  1  0  0  0  0
  6  1  1  0  0  0  0
  6 37  1  0  0  0  0
  7  8  2  0  0  0  0
  8 11  1  0  0  0  0
  8  9  1  0  0  0  0
  9 38  1  0  0  0  0
 10  9  1  0  0  0  0
 10 39  1  0  0  0  0
 12 11  1  0  0  0  0
 13 12  2  0  0  0  0
 13  7  1  0  0  0  0
 14 15  1  6  0  0  0
 14 13  1  0  0  0  0
 15 40  1  0  0  0  0
 15 41  1  0  0  0  0
 16 14  1  0  0  0  0
 16 18  1  0  0  0  0
 17 16  1  0  0  0  0
 18 19  1  0  0  0  0
 18 42  1  0  0  0  0
 19 12  1  0  0  0  0
 19 20  1  0  0  0  0
 21 22  1  0  0  0  0
 21  1  1  0  0  0  0
 22 24  2  0  0  0  0
 23 27  1  0  0  0  0
 23 22  1  0  0  0  0
 25 23  1  0  0  0  0
 26 21  1  0  0  0  0
 27 32  2  0  0  0  0
 28 29  2  0  0  0  0
 28 27  1  0  0  0  0
 28 43  1  0  0  0  0
 29 30  1  0  0  0  0
 29 44  1  0  0  0  0
 30 31  2  0  0  0  0
 30 45  1  0  0  0  0
 31 33  1  0  0  0  0
 32 31  1  0  0  0  0
 32 46  1  0  0  0  0
 33 34  1  0  0  0  0
 33 47  1  0  0  0  0
 33 48  1  0  0  0  0
 34 49  1  0  0  0  0
 34 50  1  0  0  0  0
 34 51  1  0  0  0  0
M  END
>  <REMARK>
 VINA RESULT:      -9.3      2.640      4.455
  3 active torsions:
  status: ('A' for Active; 'I' for Inactive)
    1  A    between atoms: C_2  and  C_3 
    2  A    between atoms: C_7  and  N_8 
       I    between atoms: N_8  and  C_10 
       I    between atoms: C_10  and  N_12 
    3  A    between atoms: N_12  and  C_14 

>  <TORSDO>
F 3

$$$$
resistance_project/docking/5319283d3047ac55/Q9UM73_L1196M/docked/molecule_0006_out.pdbqt
 OpenBabel09232609193D

 51 55  0  0  1  0  0  0  0  0999 V2000
   29.6620   48.0650    6.6300 C   0  0  0  0  0  0  0  0  0  0  0  0
   29.2780   46.8310    7.0570 C   0  0  0  0  0  0  0  0  0  0  0  0
   30.1360   45.9370    7.7200 C   0  0  0  0  0  0  0  0  0  0  0  0
   31.4360   46.3340    7.9520 C   0  0  0  0  0  0  0  0  0  0  0  0
   31.7800   47.5790    7.5090 C   0  0  0  0  0  0  0  0  0  0  0  0
   30.9610   48.4570    6.8630 C   0  0  0  0  0  0  0  0  0  0  0  0
   32.3980   45.4310    8.6540 C   0  0  0  0  0  0  0  0  0  0  0  0
   31.8170   44.2260    9.0060 C   0  0  0  0  0  0  0  0  0  0  0  0
   30.4260   43.7630    8.7750 C   0  0  0  0  0  0  0  0  0  0  0  0
   29.5420   44.6640    8.0990 C   0  0  0  0  0  0  0  0  0  0  0  0
   33.1670   43.3020    9.8370 S   0  0  0  0  0  0  0  0  0  0  0  0
   34.3610   44.6100    9.6320 C   0  0  0  0  0  0  0  0  0  0  0  0
   33.6820   45.6230    8.9710 C   0  0  0  0  0  0  0  0  0  0  0  0
   34.5450   46.7300    8.7510 C   0  0  1  0  0  0  0  0  0  0  0  0
   34.1740   47.9060    8.1140 N   0  0  0  0  0  0  0  0  0  0  0  0
   35.8350   46.6670    9.1830 N   0  0  0  0  0  0  0  0  0  0  0  0
   36.4260   47.4800    9.0080 H   0  0  0  0  0  0  0  0  0  0  0  0
   36.3900   45.6340    9.8130 C   0  0  0  0  0  0  0  0  0  0  0  0
   35.5790   44.5620   10.0340 N   0  0  0  0  0  0  0  0  0  0  0  0
   35.9340   43.7340   10.5130 H   0  0  0  0  0  0  0  0  0  0  0  0
   28.7430   48.9210    5.9640 N   0  0  0  0  0  0  0  0  0  0  0  0
   27.4310   49.0640    6.5060 C   0  0  0  0  0  0  0  0  0  0  0  0
   26.5630   49.9720    5.8100 N   0  0  0  0  0  0  0  0  0  0  0  0
   27.0600   48.4330    7.5300 O   0  0  0  0  0  0  0  0  0  0  0  0
   26.9170   50.5130    5.0210 H   0  0  0  0  0  0  0  0  0  0  0  0
   29.0140   49.4200    5.1180 H   0  0  0  0  0  0  0  0  0  0  0  0
   25.2080   50.1210    6.2210 C   0  0  0  0  0  0  0  0  0  0  0  0
   24.6910   51.3970    6.2450 C   0  0  0  0  0  0  0  0  0  0  0  0
   23.3780   51.5470    6.6420 C   0  0  0  0  0  0  0  0  0  0  0  0
   22.6150   50.4540    7.0010 C   0  0  0  0  0  0  0  0  0  0  0  0
   23.1750   49.1940    6.9610 C   0  0  0  0  0  0  0  0  0  0  0  0
   24.4800   48.9990    6.5720 C   0  0  0  0  0  0  0  0  0  0  0  0
   22.2840   48.0540    7.3670 C   0  0  0  0  0  0  0  0  0  0  0  0
   20.8360   48.4830    7.3660 C   0  0  0  0  0  0  0  0  0  0  0  0
   28.3042   46.5359    6.8846 H   0  0  0  0  0  0  0  0  0  0  0  0
   32.7511   47.8840    7.6791 H   0  0  0  0  0  0  0  0  0  0  0  0
   30.9250   49.3515    7.4491 H   0  0  0  0  0  0  0  0  0  0  0  0
   30.4773   42.8656    8.1945 H   0  0  0  0  0  0  0  0  0  0  0  0
   28.5580   44.4283    7.8960 H   0  0  0  0  0  0  0  0  0  0  0  0
   33.1951   47.8466    7.8337 H   0  0  0  0  0  0  0  0  0  0  0  0
   34.7565   48.0436    7.2880 H   0  0  0  0  0  0  0  0  0  0  0  0
   36.7407   45.9801   10.7628 H   0  0  0  0  0  0  0  0  0  0  0  0
   25.2647   52.2116    5.9759 H   0  0  0  0  0  0  0  0  0  0  0  0
   22.9602   52.4902    6.6710 H   0  0  0  0  0  0  0  0  0  0  0  0
   21.6342   50.5785    7.2967 H   0  0  0  0  0  0  0  0  0  0  0  0
   24.8978   48.0558    6.5434 H   0  0  0  0  0  0  0  0  0  0  0  0
   22.5539   47.7301    8.3504 H   0  0  0  0  0  0  0  0  0  0  0  0
   22.4068   47.2545    6.6666 H   0  0  0  0  0  0  0  0  0  0  0  0
   20.7006   49.2830    8.0635 H   0  0  0  0  0  0  0  0  0  0  0  0
   20.2187   47.6557    7.6479 H   0  0  0  0  0  0  0  0  0  0  0  0
   20.5628   48.8142    6.3859 H   0  0  0  0  0  0  0  0  0  0  0  0
  1  6  1  0  0  0  0
  1  2  2  0  0  0  0
  2  3  1  0  0  0  0
  2 35  1  0  0  0  0
  3  4  1  0  0  0  0
  3 10  2  0  0  0  0
  4  7  1  0  0  0  0
  5  4  2  0  0  0  0
  5 36  1  0  0  0  0
  6  5  1  0  0  0  0
  6 37  1  0  0  0  0
  7 13  1  0  0  0  0
  7  8  2  0  0  0  0
  8 11  1  0  0  0  0
  9  8  1  0  0  0  0
  9 38  1  0  0  0  0
 10  9  1  0  0  0  0
 10 39  1  0  0  0  0
 12 11  1  0  0  0  0
 12 19  1  0  0  0  0
 13 12  2  0  0  0  0
 14 15  1  1  0  0  0
 14 13  1  0  0  0  0
 14 16  1  0  0  0  0
 15 40  1  0  0  0  0
 15 41  1  0  0  0  0
 16 18  1  0  0  0  0
 17 16  1  0  0  0  0
 18 19  1  0  0  0  0
 18 42  1  0  0  0  0
 19 20  1  0  0  0  0
 21 22  1  0  0  0  0
 21  1  1  0  0  0  0
 22 24  2  0  0  0  0
 23 27  1  0  0  0  0
 23 22  1  0  0  0  0
 25 23  1  0  0  0  0
 26 21  1  0  0  0  0
 27 28  2  0  0  0  0
 27 32  1  0  0  0  0
 28 29  1  0  0  0  0
 28 43  1  0  0  0  0
 29 30  2  0  0  0  0
 29 44  1  0  0  0  0
 30 45  1  0  0  0  0
 31 30  1  0  0  0  0
 31 33  1  0  0  0  0
 32 31  2  0  0  0  0
 32 46  1  0  0  0  0
 33 47  1  0  0  0  0
 33 48  1  0  0  0  0
 34 33  1  0  0  0  0
 34 49  1  0  0  0  0
 34 50  1  0  0  0  0
 34 51  1  0  0  0  0
M  END
>  <REMARK>
 VINA RESULT:      -9.2      2.395      3.531
  3 active torsions:
  status: ('A' for Active; 'I' for Inactive)
    1  A    between atoms: C_2  and  C_3 
    2  A    between atoms: C_7  and  N_8 
       I    between atoms: N_8  and  C_10 
       I    between atoms: C_10  and  N_12 
    3  A    between atoms: N_12  and  C_14 

>  <TORSDO>
F 3

$$$$
resistance_project/docking/5319283d3047ac55/Q9UM73_L1196M/docked/molecule_0006_out.pdbqt
 OpenBabel09232609193D

 51 55  0  0  1  0  0  0  0  0999 V2000
   28.7460   47.6220    8.2410 C   0  0  0  0  0  0  0  0  0  0  0  0
   28.7000   46.4040    8.8440 C   0  0  0  0  0  0  0  0  0  0  0  0
   29.7240   45.4460    8.7400 C   0  0  0  0  0  0  0  0  0  0  0  0
   30.8350   45.7600    7.9860 C   0  0  0  0  0  0  0  0  0  0  0  0
   30.8410   46.9930    7.3970 C   0  0  0  0  0  0  0  0  0  0  0  0
   29.8560   47.9320    7.4880 C   0  0  0  0  0  0  0  0  0  0  0  0
   31.9580   44.7880    7.8360 C   0  0  0  0  0  0  0  0  0  0  0  0
   31.7220   43.6110    8.5240 C   0  0  0  0  0  0  0  0  0  0  0  0
   30.5440   43.2360    9.3440 C   0  0  0  0  0  0  0  0  0  0  0  0
   29.4930   44.2020    9.4580 C   0  0  0  0  0  0  0  0  0  0  0  0
   33.2110   42.5910    8.1960 S   0  0  0  0  0  0  0  0  0  0  0  0
   33.9930   43.8300    7.1810 C   0  0  0  0  0  0  0  0  0  0  0  0
   33.1060   44.8960    7.1590 C   0  0  0  0  0  0  0  0  0  0  0  0
   33.6300   45.9550    6.3700 C   0  0  1  0  0  0  0  0  0  0  0  0
   32.9870   47.1650    6.1460 N   0  0  0  0  0  0  0  0  0  0  0  0
   34.8470   45.8070    5.7770 N   0  0  0  0  0  0  0  0  0  0  0  0
   35.1920   46.5880    5.2180 H   0  0  0  0  0  0  0  0  0  0  0  0
   35.6230   44.7300    5.8650 C   0  0  0  0  0  0  0  0  0  0  0  0
   35.1390   43.7020    6.6170 N   0  0  0  0  0  0  0  0  0  0  0  0
   35.6790   42.8440    6.7310 H   0  0  0  0  0  0  0  0  0  0  0  0
   27.6750   48.5450    8.3870 N   0  0  0  0  0  0  0  0  0  0  0  0
   27.0190   49.0190    7.2130 C   0  0  0  0  0  0  0  0  0  0  0  0
   25.9200   49.9180    7.4290 N   0  0  0  0  0  0  0  0  0  0  0  0
   27.3820   48.6690    6.0590 O   0  0  0  0  0  0  0  0  0  0  0  0
   25.6150   50.1310    8.3790 H   0  0  0  0  0  0  0  0  0  0  0  0
   27.3830   48.8620    9.3110 H   0  0  0  0  0  0  0  0  0  0  0  0
   25.2540   50.5120    6.3200 C   0  0  0  0  0  0  0  0  0  0  0  0
   25.8060   51.6560    5.7910 C   0  0  0  0  0  0  0  0  0  0  0  0
   25.1650   52.2360    4.7160 C   0  0  0  0  0  0  0  0  0  0  0  0
   24.0130   51.6840    4.1930 C   0  0  0  0  0  0  0  0  0  0  0  0
   23.4960   50.5360    4.7550 C   0  0  0  0  0  0  0  0  0  0  0  0
   24.1030   49.9250    5.8290 C   0  0  0  0  0  0  0  0  0  0  0  0
   22.2400   49.9940    4.1340 C   0  0  0  0  0  0  0  0  0  0  0  0
   21.4500   51.1020    3.4770 C   0  0  0  0  0  0  0  0  0  0  0  0
   27.8684   46.1701    9.4086 H   0  0  0  0  0  0  0  0  0  0  0  0
   31.6683   47.2365    6.8302 H   0  0  0  0  0  0  0  0  0  0  0  0
   29.5200   48.1405    6.4938 H   0  0  0  0  0  0  0  0  0  0  0  0
   30.8942   43.0229   10.3324 H   0  0  0  0  0  0  0  0  0  0  0  0
   28.6369   44.0289   10.0077 H   0  0  0  0  0  0  0  0  0  0  0  0
   33.5683   47.7536    5.5492 H   0  0  0  0  0  0  0  0  0  0  0  0
   32.8283   47.6357    7.0369 H   0  0  0  0  0  0  0  0  0  0  0  0
   36.5570   45.0339    6.2894 H   0  0  0  0  0  0  0  0  0  0  0  0
   26.6680   52.0651    6.1841 H   0  0  0  0  0  0  0  0  0  0  0  0
   25.5526   53.0955    4.2965 H   0  0  0  0  0  0  0  0  0  0  0  0
   23.5427   52.1268    3.3882 H   0  0  0  0  0  0  0  0  0  0  0  0
   23.7154   49.0659    6.2493 H   0  0  0  0  0  0  0  0  0  0  0  0
   22.4993   49.2626    3.3973 H   0  0  0  0  0  0  0  0  0  0  0  0
   21.6398   49.5506    4.9009 H   0  0  0  0  0  0  0  0  0  0  0  0
   22.0408   51.5534    2.7075 H   0  0  0  0  0  0  0  0  0  0  0  0
   21.1936   51.8395    4.2087 H   0  0  0  0  0  0  0  0  0  0  0  0
   20.5562   50.6978    3.0496 H   0  0  0  0  0  0  0  0  0  0  0  0
  1 21  1  0  0  0  0
  1  2  2  0  0  0  0
  2 35  1  0  0  0  0
  3  2  1  0  0  0  0
  3 10  2  0  0  0  0
  4  3  1  0  0  0  0
  5  6  1  0  0  0  0
  5  4  2  0  0  0  0
  5 36  1  0  0  0  0
  6  1  1  0  0  0  0
  6 37  1  0  0  0  0
  7  4  1  0  0  0  0
  7  8  2  0  0  0  0
  8  9  1  0  0  0  0
  9 10  1  0  0  0  0
  9 38  1  0  0  0  0
 10 39  1  0  0  0  0
 11  8  1  0  0  0  0
 12 11  1  0  0  0  0
 13 12  2  0  0  0  0
 13  7  1  0  0  0  0
 14 15  1  1  0  0  0
 14 13  1  0  0  0  0
 15 40  1  0  0  0  0
 15 41  1  0  0  0  0
 16 18  1  0  0  0  0
 16 14  1  0  0  0  0
 17 16  1  0  0  0  0
 18 19  1  0  0  0  0
 18 42  1  0  0  0  0
 19 20  1  0  0  0  0
 19 12  1  0  0  0  0
 21 26  1  0  0  0  0
 22 23  1  0  0  0  0
 22 21  1  0  0  0  0
 23 25  1  0  0  0  0
 24 22  2  0  0  0  0
 27 23  1  0  0  0  0
 28 27  2  0  0  0  0
 28 43  1  0  0  0  0
 29 28  1  0  0  0  0
 29 44  1  0  0  0  0
 30 29  2  0  0  0  0
 30 31  1  0  0  0  0
 30 45  1  0  0  0  0
 31 32  2  0  0  0  0
 32 27  1  0  0  0  0
 32 46  1  0  0  0  0
 33 31  1  0  0  0  0
 33 47  1  0  0  0  0
 33 48  1  0  0  0  0
 34 33  1  0  0  0  0
 34 49  1  0  0  0  0
 34 50  1  0  0  0  0
 34 51  1  0  0  0  0
M  END
>  <REMARK>
 VINA RESULT:      -9.2      2.092      3.496
  3 active torsions:
  status: ('A' for Active; 'I' for Inactive)
    1  A    between atoms: C_2  and  C_3 
    2  A    between atoms: C_7  and  N_8 
       I    between atoms: N_8  and  C_10 
       I    between atoms: C_10  and  N_12 
    3  A    between atoms: N_12  and  C_14 

>  <TORSDO>
F 3

$$$$
resistance_project/docking/5319283d3047ac55/Q9UM73_L1196M/docked/molecule_0006_out.pdbqt
 OpenBabel09232609193D

 51 55  0  0  1  0  0  0  0  0999 V2000
   29.2920   46.9080    8.4500 C   0  0  0  0  0  0  0  0  0  0  0  0
   29.6140   45.5870    8.5030 C   0  0  0  0  0  0  0  0  0  0  0  0
   30.9020   45.0900    8.2400 C   0  0  0  0  0  0  0  0  0  0  0  0
   31.8930   45.9910    7.9120 C   0  0  0  0  0  0  0  0  0  0  0  0
   31.5280   47.3080    7.8700 C   0  0  0  0  0  0  0  0  0  0  0  0
   30.2840   47.8050    8.1220 C   0  0  0  0  0  0  0  0  0  0  0  0
   33.2830   45.5290    7.6220 C   0  0  0  0  0  0  0  0  0  0  0  0
   33.4060   44.1550    7.7280 C   0  0  0  0  0  0  0  0  0  0  0  0
   32.3680   43.1540    8.0780 C   0  0  0  0  0  0  0  0  0  0  0  0
   31.0500   43.6470    8.3480 C   0  0  0  0  0  0  0  0  0  0  0  0
   35.1680   43.8290    7.3340 S   0  0  0  0  0  0  0  0  0  0  0  0
   35.5590   45.5480    7.0690 C   0  0  0  0  0  0  0  0  0  0  0  0
   34.3710   46.2300    7.2890 C   0  0  0  0  0  0  0  0  0  0  0  0
   34.5650   47.6250    7.1050 C   0  0  2  0  0  0  0  0  0  0  0  0
   33.5730   48.5850    7.2500 N   0  0  0  0  0  0  0  0  0  0  0  0
   35.7980   48.0890    6.7610 N   0  0  0  0  0  0  0  0  0  0  0  0
   35.9010   49.0960    6.6360 H   0  0  0  0  0  0  0  0  0  0  0  0
   36.8810   47.3380    6.5730 C   0  0  0  0  0  0  0  0  0  0  0  0
   36.7170   45.9960    6.7450 N   0  0  0  0  0  0  0  0  0  0  0  0
   37.5030   45.3580    6.6190 H   0  0  0  0  0  0  0  0  0  0  0  0
   27.9680   47.3430    8.7280 N   0  0  0  0  0  0  0  0  0  0  0  0
   27.1960   47.8990    7.6650 C   0  0  0  0  0  0  0  0  0  0  0  0
   25.8540   48.2830    8.0000 N   0  0  0  0  0  0  0  0  0  0  0  0
   27.6650   48.0410    6.5050 O   0  0  0  0  0  0  0  0  0  0  0  0
   25.4880   48.0960    8.9340 H   0  0  0  0  0  0  0  0  0  0  0  0
   27.5780   47.2620    9.6670 H   0  0  0  0  0  0  0  0  0  0  0  0
   25.0310   48.9240    7.0310 C   0  0  0  0  0  0  0  0  0  0  0  0
   23.8630   48.2900    6.6730 C   0  0  0  0  0  0  0  0  0  0  0  0
   23.0620   48.9070    5.7350 C   0  0  0  0  0  0  0  0  0  0  0  0
   23.4230   50.1170    5.1790 C   0  0  0  0  0  0  0  0  0  0  0  0
   24.6020   50.7170    5.5670 C   0  0  0  0  0  0  0  0  0  0  0  0
   25.4320   50.1360    6.5000 C   0  0  0  0  0  0  0  0  0  0  0  0
   24.9290   52.0320    4.9180 C   0  0  0  0  0  0  0  0  0  0  0  0
   26.3540   52.0370    4.4140 C   0  0  0  0  0  0  0  0  0  0  0  0
   28.8721   44.9134    8.7497 H   0  0  0  0  0  0  0  0  0  0  0  0
   32.2631   47.9895    7.6246 H   0  0  0  0  0  0  0  0  0  0  0  0
   30.0924   48.8177    8.0689 H   0  0  0  0  0  0  0  0  0  0  0  0
   32.5859   42.1464    8.1249 H   0  0  0  0  0  0  0  0  0  0  0  0
   30.2655   43.0256    8.5999 H   0  0  0  0  0  0  0  0  0  0  0  0
   33.9641   49.5087    7.0648 H   0  0  0  0  0  0  0  0  0  0  0  0
   33.2075   48.5551    8.2018 H   0  0  0  0  0  0  0  0  0  0  0  0
   37.2215   47.5001    5.5717 H   0  0  0  0  0  0  0  0  0  0  0  0
   23.5961   47.3852    7.0915 H   0  0  0  0  0  0  0  0  0  0  0  0
   22.1798   48.4571    5.4448 H   0  0  0  0  0  0  0  0  0  0  0  0
   22.8153   50.5693    4.4782 H   0  0  0  0  0  0  0  0  0  0  0  0
   26.3145   50.5856    6.7900 H   0  0  0  0  0  0  0  0  0  0  0  0
   24.2644   52.1928    4.0950 H   0  0  0  0  0  0  0  0  0  0  0  0
   24.8167   52.8115    5.6424 H   0  0  0  0  0  0  0  0  0  0  0  0
   26.4783   51.2607    3.6881 H   0  0  0  0  0  0  0  0  0  0  0  0
   27.0225   51.8702    5.2327 H   0  0  0  0  0  0  0  0  0  0  0  0
   26.5700   52.9836    3.9644 H   0  0  0  0  0  0  0  0  0  0  0  0
  1  2  2  0  0  0  0
  1 21  1  0  0  0  0
  2 35  1  0  0  0  0
  3 10  1  0  0  0  0
  3  2  1  0  0  0  0
  4  3  2  0  0  0  0
  5  4  1  0  0  0  0
  5  6  2  0  0  0  0
  5 36  1  0  0  0  0
  6  1  1  0  0  0  0
  6 37  1  0  0  0  0
  7  8  2  0  0  0  0
  7  4  1  0  0  0  0
  8  9  1  0  0  0  0
  9 10  2  0  0  0  0
  9 38  1  0  0  0  0
 10 39  1  0  0  0  0
 11  8  1  0  0  0  0
 12 13  2  0  0  0  0
 12 11  1  0  0  0  0
 13  7  1  0  0  0  0
 14 15  1  6  0  0  0
 14 13  1  0  0  0  0
 15 40  1  0  0  0  0
 15 41  1  0  0  0  0
 16 14  1  0  0  0  0
 17 16  1  0  0  0  0
 18 19  1  0  0  0  0
 18 16  1  0  0  0  0
 18 42  1  0  0  0  0
 19 12  1  0  0  0  0
 20 19  1  0  0  0  0
 21 26  1  0  0  0  0
 22 23  1  0  0  0  0
 22 21  1  0  0  0  0
 23 25  1  0  0  0  0
 24 22  2  0  0  0  0
 27 23  1  0  0  0  0
 28 27  1  0  0  0  0
 28 43  1  0  0  0  0
 29 28  2  0  0  0  0
 29 44  1  0  0  0  0
 30 31  2  0  0  0  0
 30 29  1  0  0  0  0
 30 45  1  0  0  0  0
 31 32  1  0  0  0  0
 32 27  2  0  0  0  0
 32 46  1  0  0  0  0
 33 31  1  0  0  0  0
 33 47  1  0  0  0  0
 33 48  1  0  0  0  0
 34 33  1  0  0  0  0
 34 49  1  0  0  0  0
 34 50  1  0  0  0  0
 34 51  1  0  0  0  0
M  END
>  <REMARK>
 VINA RESULT:      -9.0      2.270      3.114
  3 active torsions:
  status: ('A' for Active; 'I' for Inactive)
    1  A    between atoms: C_2  and  C_3 
    2  A    between atoms: C_7  and  N_8 
       I    between atoms: N_8  and  C_10 
       I    between atoms: C_10  and  N_12 
    3  A    between atoms: N_12  and  C_14 

>  <TORSDO>
F 3

$$$$
resistance_project/docking/5319283d3047ac55/Q9UM73_L1196M/docked/molecule_0006_out.pdbqt
 OpenBabel09232609193D

 51 55  0  0  1  0  0  0  0  0999 V2000
   27.9230   47.1040    8.0110 C   0  0  0  0  0  0  0  0  0  0  0  0
   28.0150   46.0200    8.8290 C   0  0  0  0  0  0  0  0  0  0  0  0
   29.1440   45.1850    8.8870 C   0  0  0  0  0  0  0  0  0  0  0  0
   30.2160   45.4810    8.0720 C   0  0  0  0  0  0  0  0  0  0  0  0
   30.0830   46.5770    7.2670 C   0  0  0  0  0  0  0  0  0  0  0  0
   28.9950   47.3960    7.1980 C   0  0  0  0  0  0  0  0  0  0  0  0
   31.4460   44.6340    8.0870 C   0  0  0  0  0  0  0  0  0  0  0  0
   31.3430   43.5840    8.9820 C   0  0  0  0  0  0  0  0  0  0  0  0
   30.2110   43.2330    9.8740 C   0  0  0  0  0  0  0  0  0  0  0  0
   29.0530   44.0760    9.8240 C   0  0  0  0  0  0  0  0  0  0  0  0
   32.9430   42.7000    8.8250 S   0  0  0  0  0  0  0  0  0  0  0  0
   33.5830   43.8140    7.5890 C   0  0  0  0  0  0  0  0  0  0  0  0
   32.5770   44.7480    7.3850 C   0  0  0  0  0  0  0  0  0  0  0  0
   32.9810   45.6970    6.4070 C   0  0  1  0  0  0  0  0  0  0  0  0
   32.2030   46.7620    5.9740 N   0  0  0  0  0  0  0  0  0  0  0  0
   34.2110   45.5840    5.8340 N   0  0  0  0  0  0  0  0  0  0  0  0
   34.4670   46.2830    5.1360 H   0  0  0  0  0  0  0  0  0  0  0  0
   35.1060   44.6390    6.1070 C   0  0  0  0  0  0  0  0  0  0  0  0
   34.7390   43.7170    7.0420 N   0  0  0  0  0  0  0  0  0  0  0  0
   35.3750   42.9630    7.3030 H   0  0  0  0  0  0  0  0  0  0  0  0
   26.7510   47.9080    8.0010 N   0  0  0  0  0  0  0  0  0  0  0  0
   26.6370   48.9350    7.0180 C   0  0  0  0  0  0  0  0  0  0  0  0
   25.4140   49.6860    7.0350 N   0  0  0  0  0  0  0  0  0  0  0  0
   27.5540   49.1660    6.1870 O   0  0  0  0  0  0  0  0  0  0  0  0
   24.6680   49.4300    7.6830 H   0  0  0  0  0  0  0  0  0  0  0  0
   26.0080   47.7550    8.6830 H   0  0  0  0  0  0  0  0  0  0  0  0
   25.2380   50.7860    6.1500 C   0  0  0  0  0  0  0  0  0  0  0  0
   24.5390   50.5580    4.9870 C   0  0  0  0  0  0  0  0  0  0  0  0
   24.3660   51.6210    4.1260 C   0  0  0  0  0  0  0  0  0  0  0  0
   24.8770   52.8680    4.4240 C   0  0  0  0  0  0  0  0  0  0  0  0
   25.5710   53.0510    5.6020 C   0  0  0  0  0  0  0  0  0  0  0  0
   25.7670   52.0180    6.4890 C   0  0  0  0  0  0  0  0  0  0  0  0
   26.0990   54.4350    5.8580 C   0  0  0  0  0  0  0  0  0  0  0  0
   26.5000   54.5910    7.3060 C   0  0  0  0  0  0  0  0  0  0  0  0
   27.2126   45.7994    9.4394 H   0  0  0  0  0  0  0  0  0  0  0  0
   30.8807   46.8064    6.6538 H   0  0  0  0  0  0  0  0  0  0  0  0
   28.6443   47.3774    6.1873 H   0  0  0  0  0  0  0  0  0  0  0  0
   30.5768   43.2475   10.8794 H   0  0  0  0  0  0  0  0  0  0  0  0
   28.2186   43.9091   10.4079 H   0  0  0  0  0  0  0  0  0  0  0  0
   32.7160   47.2941    5.2711 H   0  0  0  0  0  0  0  0  0  0  0  0
   31.9840   47.3670    6.7655 H   0  0  0  0  0  0  0  0  0  0  0  0
   35.9951   45.1217    6.4554 H   0  0  0  0  0  0  0  0  0  0  0  0
   24.1578   49.6246    4.7669 H   0  0  0  0  0  0  0  0  0  0  0  0
   23.8464   51.4821    3.2452 H   0  0  0  0  0  0  0  0  0  0  0  0
   24.7412   53.6561    3.7717 H   0  0  0  0  0  0  0  0  0  0  0  0
   26.2866   52.1565    7.3698 H   0  0  0  0  0  0  0  0  0  0  0  0
   25.3383   55.1504    5.6246 H   0  0  0  0  0  0  0  0  0  0  0  0
   26.9593   54.5956    5.2423 H   0  0  0  0  0  0  0  0  0  0  0  0
   25.6465   54.4323    7.9315 H   0  0  0  0  0  0  0  0  0  0  0  0
   26.8811   55.5779    7.4662 H   0  0  0  0  0  0  0  0  0  0  0  0
   27.2564   53.8733    7.5459 H   0  0  0  0  0  0  0  0  0  0  0  0
  1  2  2  0  0  0  0
  2  3  1  0  0  0  0
  2 35  1  0  0  0  0
  3 10  2  0  0  0  0
  4  7  1  0  0  0  0
  4  3  1  0  0  0  0
  5  4  2  0  0  0  0
  5 36  1  0  0  0  0
  6  5  1  0  0  0  0
  6  1  1  0  0  0  0
  6 37  1  0  0  0  0
  7  8  2  0  0  0  0
  8  9  1  0  0  0  0
  9 38  1  0  0  0  0
 10  9  1  0  0  0  0
 10 39  1  0  0  0  0
 11  8  1  0  0  0  0
 12 11  1  0  0  0  0
 13 12  2  0  0  0  0
 13  7  1  0  0  0  0
 14 15  1  1  0  0  0
 14 13  1  0  0  0  0
 15 40  1  0  0  0  0
 15 41  1  0  0  0  0
 16 18  1  0  0  0  0
 16 14  1  0  0  0  0
 17 16  1  0  0  0  0
 18 19  1  0  0  0  0
 18 42  1  0  0  0  0
 19 20  1  0  0  0  0
 19 12  1  0  0  0  0
 21  1  1  0  0  0  0
 21 26  1  0  0  0  0
 22 23  1  0  0  0  0
 22 21  1  0  0  0  0
 23 25  1  0  0  0  0
 24 22  2  0  0  0  0
 27 32  1  0  0  0  0
 27 23  1  0  0  0  0
 28 27  2  0  0  0  0
 28 43  1  0  0  0  0
 29 30  2  0  0  0  0
 29 28  1  0  0  0  0
 29 44  1  0  0  0  0
 30 31  1  0  0  0  0
 30 45  1  0  0  0  0
 31 33  1  0  0  0  0
 31 32  2  0  0  0  0
 32 46  1  0  0  0  0
 33 34  1  0  0  0  0
 33 47  1  0  0  0  0
 33 48  1  0  0  0  0
 34 49  1  0  0  0  0
 34 50  1  0  0  0  0
 34 51  1  0  0  0  0
M  END
>  <REMARK>
 VINA RESULT:      -9.0      1.916      3.147
  3 active torsions:
  status: ('A' for Active; 'I' for Inactive)
    1  A    between atoms: C_2  and  C_3 
    2  A    between atoms: C_7  and  N_8 
       I    between atoms: N_8  and  C_10 
       I    between atoms: C_10  and  N_12 
    3  A    between atoms: N_12  and  C_14 

>  <TORSDO>
F 3

$$$$
resistance_project/docking/5319283d3047ac55/Q9UM73_L1196M/docked/molecule_0006_out.pdbqt
 OpenBabel09232609193D

 51 55  0  0  1  0  0  0  0  0999 V2000
   33.4390   46.8650    5.6970 C   0  0  0  0  0  0  0  0  0  0  0  0
   33.0980   45.8090    6.4840 C   0  0  0  0  0  0  0  0  0  0  0  0
   31.8320   45.6580    7.0770 C   0  0  0  0  0  0  0  0  0  0  0  0
   30.8850   46.6330    6.8470 C   0  0  0  0  0  0  0  0  0  0  0  0
   31.2680   47.6760    6.0520 C   0  0  0  0  0  0  0  0  0  0  0  0
   32.4900   47.8370    5.4700 C   0  0  0  0  0  0  0  0  0  0  0  0
   29.5210   46.5320    7.4470 C   0  0  0  0  0  0  0  0  0  0  0  0
   29.3730   45.3890    8.2110 C   0  0  0  0  0  0  0  0  0  0  0  0
   30.3650   44.3180    8.4820 C   0  0  0  0  0  0  0  0  0  0  0  0
   31.6590   44.4600    7.8840 C   0  0  0  0  0  0  0  0  0  0  0  0
   27.6500   45.4820    8.8340 S   0  0  0  0  0  0  0  0  0  0  0  0
   27.3040   47.0280    8.0150 C   0  0  0  0  0  0  0  0  0  0  0  0
   28.4750   47.3580    7.3490 C   0  0  0  0  0  0  0  0  0  0  0  0
   28.3140   48.5860    6.6530 C   0  0  2  0  0  0  0  0  0  0  0  0
   29.3000   49.1940    5.8890 N   0  0  0  0  0  0  0  0  0  0  0  0
   27.1220   49.2400    6.7190 N   0  0  0  0  0  0  0  0  0  0  0  0
   27.0420   50.1190    6.2080 H   0  0  0  0  0  0  0  0  0  0  0  0
   26.0520   48.8300    7.3950 C   0  0  0  0  0  0  0  0  0  0  0  0
   26.1840   47.6530    8.0700 N   0  0  0  0  0  0  0  0  0  0  0  0
   25.4060   47.2750    8.6100 H   0  0  0  0  0  0  0  0  0  0  0  0
   34.7370   46.9570    5.1280 N   0  0  0  0  0  0  0  0  0  0  0  0
   35.7610   47.6180    5.8680 C   0  0  0  0  0  0  0  0  0  0  0  0
   37.0600   47.6430    5.2570 N   0  0  0  0  0  0  0  0  0  0  0  0
   35.5370   48.1470    6.9890 O   0  0  0  0  0  0  0  0  0  0  0  0
   37.2190   47.1510    4.3770 H   0  0  0  0  0  0  0  0  0  0  0  0
   34.9330   46.5590    4.2090 H   0  0  0  0  0  0  0  0  0  0  0  0
   38.1280   48.3510    5.8770 C   0  0  0  0  0  0  0  0  0  0  0  0
   39.0840   47.6090    6.5310 C   0  0  0  0  0  0  0  0  0  0  0  0
   40.1210   48.2900    7.1330 C   0  0  0  0  0  0  0  0  0  0  0  0
   40.1940   49.6670    7.0770 C   0  0  0  0  0  0  0  0  0  0  0  0
   39.2140   50.3710    6.4090 C   0  0  0  0  0  0  0  0  0  0  0  0
   38.1610   49.7310    5.7960 C   0  0  0  0  0  0  0  0  0  0  0  0
   39.3580   51.8660    6.3920 C   0  0  0  0  0  0  0  0  0  0  0  0
   38.6410   52.4840    7.5690 C   0  0  0  0  0  0  0  0  0  0  0  0
   33.8071   45.0790    6.6551 H   0  0  0  0  0  0  0  0  0  0  0  0
   30.5658   48.4114    5.8755 H   0  0  0  0  0  0  0  0  0  0  0  0
   32.3358   47.8927    4.4126 H   0  0  0  0  0  0  0  0  0  0  0  0
   30.5035   44.2677    9.5418 H   0  0  0  0  0  0  0  0  0  0  0  0
   32.4110   43.7656    8.0156 H   0  0  0  0  0  0  0  0  0  0  0  0
   28.9377   50.0622    5.4947 H   0  0  0  0  0  0  0  0  0  0  0  0
   29.5792   48.5680    5.1336 H   0  0  0  0  0  0  0  0  0  0  0  0
   25.2478   48.7188    6.6980 H   0  0  0  0  0  0  0  0  0  0  0  0
   39.0272   46.5793    6.5697 H   0  0  0  0  0  0  0  0  0  0  0  0
   40.8534   47.7621    7.6329 H   0  0  0  0  0  0  0  0  0  0  0  0
   40.9752   50.1656    7.5311 H   0  0  0  0  0  0  0  0  0  0  0  0
   37.4275   50.2584    5.2973 H   0  0  0  0  0  0  0  0  0  0  0  0
   38.9393   52.2491    5.4849 H   0  0  0  0  0  0  0  0  0  0  0  0
   40.3974   52.1126    6.4538 H   0  0  0  0  0  0  0  0  0  0  0  0
   37.5995   52.2441    7.5182 H   0  0  0  0  0  0  0  0  0  0  0  0
   38.7639   53.5466    7.5436 H   0  0  0  0  0  0  0  0  0  0  0  0
   39.0517   52.0991    8.4790 H   0  0  0  0  0  0  0  0  0  0  0  0
  1  2  2  0  0  0  0
  2  3  1  0  0  0  0
  2 35  1  0  0  0  0
  3 10  2  0  0  0  0
  4  3  1  0  0  0  0
  4  7  1  0  0  0  0
  5  4  2  0  0  0  0
  5 36  1  0  0  0  0
  6  1  1  0  0  0  0
  6  5  1  0  0  0  0
  6 37  1  0  0  0  0
  7  8  2  0  0  0  0
  8  9  1  0  0  0  0
  8 11  1  0  0  0  0
  9 38  1  0  0  0  0
 10  9  1  0  0  0  0
 10 39  1  0  0  0  0
 12 19  1  0  0  0  0
 12 11  1  0  0  0  0
 13  7  1  0  0  0  0
 13 12  2  0  0  0  0
 14 15  1  1  0  0  0
 14 16  1  0  0  0  0
 14 13  1  0  0  0  0
 15 40  1  0  0  0  0
 15 41  1  0  0  0  0
 16 18  1  0  0  0  0
 17 16  1  0  0  0  0
 18 19  1  0  0  0  0
 18 42  1  0  0  0  0
 19 20  1  0  0  0  0
 21  1  1  0  0  0  0
 21 22  1  0  0  0  0
 22 24  2  0  0  0  0
 23 22  1  0  0  0  0
 23 27  1  0  0  0  0
 25 23  1  0  0  0  0
 26 21  1  0  0  0  0
 27 28  1  0  0  0  0
 28 29  2  0  0  0  0
 28 43  1  0  0  0  0
 29 44  1  0  0  0  0
 30 29  1  0  0  0  0
 30 45  1  0  0  0  0
 31 30  2  0  0  0  0
 32 27  2  0  0  0  0
 32 31  1  0  0  0  0
 32 46  1  0  0  0  0
 33 31  1  0  0  0  0
 33 34  1  0  0  0  0
 33 47  1  0  0  0  0
 33 48  1  0  0  0  0
 34 49  1  0  0  0  0
 34 50  1  0  0  0  0
 34 51  1  0  0  0  0
M  END
>  <REMARK>
 VINA RESULT:      -8.8      4.810      9.567
  3 active torsions:
  status: ('A' for Active; 'I' for Inactive)
    1  A    between atoms: C_2  and  C_3 
    2  A    between atoms: C_7  and  N_8 
       I    between atoms: N_8  and  C_10 
       I    between atoms: C_10  and  N_12 
    3  A    between atoms: N_12  and  C_14 

>  <TORSDO>
F 3

$$$$
resistance_project/docking/5319283d3047ac55/Q9UM73_L1196M/docked/molecule_0006_out.pdbqt
 OpenBabel09232609193D

 51 55  0  0  1  0  0  0  0  0999 V2000
   28.6450   47.5580    7.2530 C   0  0  0  0  0  0  0  0  0  0  0  0
   28.5310   46.5130    8.1170 C   0  0  0  0  0  0  0  0  0  0  0  0
   29.5500   45.5700    8.3350 C   0  0  0  0  0  0  0  0  0  0  0  0
   30.7300   45.7130    7.6360 C   0  0  0  0  0  0  0  0  0  0  0  0
   30.8040   46.7750    6.7800 C   0  0  0  0  0  0  0  0  0  0  0  0
   29.8250   47.6970    6.5560 C   0  0  0  0  0  0  0  0  0  0  0  0
   31.8530   44.7460    7.8230 C   0  0  0  0  0  0  0  0  0  0  0  0
   31.5410   43.7590    8.7410 C   0  0  0  0  0  0  0  0  0  0  0  0
   30.2870   43.5710    9.5120 C   0  0  0  0  0  0  0  0  0  0  0  0
   29.2390   44.5240    9.2980 C   0  0  0  0  0  0  0  0  0  0  0  0
   33.0440   42.7090    8.8010 S   0  0  0  0  0  0  0  0  0  0  0  0
   33.9300   43.6870    7.6040 C   0  0  0  0  0  0  0  0  0  0  0  0
   33.0600   44.7080    7.2510 C   0  0  0  0  0  0  0  0  0  0  0  0
   33.6670   45.5600    6.2900 C   0  0  1  0  0  0  0  0  0  0  0  0
   33.0600   46.6770    5.7310 N   0  0  0  0  0  0  0  0  0  0  0  0
   34.9330   45.2930    5.8640 N   0  0  0  0  0  0  0  0  0  0  0  0
   35.3370   45.9260    5.1740 H   0  0  0  0  0  0  0  0  0  0  0  0
   35.6860   44.2750    6.2730 C   0  0  0  0  0  0  0  0  0  0  0  0
   35.1230   43.4450    7.1950 N   0  0  0  0  0  0  0  0  0  0  0  0
   35.6410   42.6440    7.5560 H   0  0  0  0  0  0  0  0  0  0  0  0
   27.5750   48.4760    7.0790 N   0  0  0  0  0  0  0  0  0  0  0  0
   27.8860   49.8490    6.8470 C   0  0  0  0  0  0  0  0  0  0  0  0
   26.7620   50.7190    6.6400 N   0  0  0  0  0  0  0  0  0  0  0  0
   29.0720   50.2690    6.8250 O   0  0  0  0  0  0  0  0  0  0  0  0
   25.8180   50.3330    6.6040 H   0  0  0  0  0  0  0  0  0  0  0  0
   26.6050   48.1610    7.1200 H   0  0  0  0  0  0  0  0  0  0  0  0
   26.9630   52.1190    6.4850 C   0  0  0  0  0  0  0  0  0  0  0  0
   27.1730   52.5900    5.2090 C   0  0  0  0  0  0  0  0  0  0  0  0
   27.3670   53.9470    5.0520 C   0  0  0  0  0  0  0  0  0  0  0  0
   27.3500   54.7980    6.1390 C   0  0  0  0  0  0  0  0  0  0  0  0
   27.1350   54.2810    7.4000 C   0  0  0  0  0  0  0  0  0  0  0  0
   26.9370   52.9340    7.6010 C   0  0  0  0  0  0  0  0  0  0  0  0
   27.1310   55.2670    8.5340 C   0  0  0  0  0  0  0  0  0  0  0  0
   25.7490   55.3830    9.1330 C   0  0  0  0  0  0  0  0  0  0  0  0
   27.6481   46.4071    8.6408 H   0  0  0  0  0  0  0  0  0  0  0  0
   31.6839   46.8903    6.2532 H   0  0  0  0  0  0  0  0  0  0  0  0
   29.5866   47.6635    5.5134 H   0  0  0  0  0  0  0  0  0  0  0  0
   30.5405   43.5989   10.5512 H   0  0  0  0  0  0  0  0  0  0  0  0
   28.3328   44.4727    9.7891 H   0  0  0  0  0  0  0  0  0  0  0  0
   33.7007   47.1175    5.0708 H   0  0  0  0  0  0  0  0  0  0  0  0
   32.8230   47.3402    6.4688 H   0  0  0  0  0  0  0  0  0  0  0  0
   36.5793   44.6803    6.7004 H   0  0  0  0  0  0  0  0  0  0  0  0
   27.1849   51.9511    4.3986 H   0  0  0  0  0  0  0  0  0  0  0  0
   27.5272   54.3316    4.1079 H   0  0  0  0  0  0  0  0  0  0  0  0
   27.4967   55.8113    6.0096 H   0  0  0  0  0  0  0  0  0  0  0  0
   26.7760   52.5489    8.5448 H   0  0  0  0  0  0  0  0  0  0  0  0
   27.4372   56.2248    8.1683 H   0  0  0  0  0  0  0  0  0  0  0  0
   27.8071   54.9259    9.2900 H   0  0  0  0  0  0  0  0  0  0  0  0
   25.0636   55.7237    8.3853 H   0  0  0  0  0  0  0  0  0  0  0  0
   25.7690   56.0815    9.9433 H   0  0  0  0  0  0  0  0  0  0  0  0
   25.4355   54.4260    9.4947 H   0  0  0  0  0  0  0  0  0  0  0  0
  1  2  2  0  0  0  0
  2  3  1  0  0  0  0
  2 35  1  0  0  0  0
  3 10  2  0  0  0  0
  4  7  1  0  0  0  0
  4  3  1  0  0  0  0
  5  4  2  0  0  0  0
  5 36  1  0  0  0  0
  6  5  1  0  0  0  0
  6  1  1  0  0  0  0
  6 37  1  0  0  0  0
  7  8  2  0  0  0  0
  8 11  1  0  0  0  0
  8  9  1  0  0  0  0
  9 38  1  0  0  0  0
 10  9  1  0  0  0  0
 10 39  1  0  0  0  0
 12 11  1  0  0  0  0
 13 12  2  0  0  0  0
 13  7  1  0  0  0  0
 14 15  1  1  0  0  0
 14 13  1  0  0  0  0
 15 40  1  0  0  0  0
 15 41  1  0  0  0  0
 16 18  1  0  0  0  0
 16 14  1  0  0  0  0
 17 16  1  0  0  0  0
 18 19  1  0  0  0  0
 18 42  1  0  0  0  0
 19 20  1  0  0  0  0
 19 12  1  0  0  0  0
 21 26  1  0  0  0  0
 21  1  1  0  0  0  0
 22 21  1  0  0  0  0
 23 22  1  0  0  0  0
 24 22  2  0  0  0  0
 25 23  1  0  0  0  0
 27 23  1  0  0  0  0
 27 32  2  0  0  0  0
 28 27  1  0  0  0  0
 28 43  1  0  0  0  0
 29 28  2  0  0  0  0
 29 30  1  0  0  0  0
 29 44  1  0  0  0  0
 30 31  2  0  0  0  0
 30 45  1  0  0  0  0
 31 32  1  0  0  0  0
 31 33  1  0  0  0  0
 32 46  1  0  0  0  0
 33 34  1  0  0  0  0
 33 47  1  0  0  0  0
 33 48  1  0  0  0  0
 34 49  1  0  0  0  0
 34 50  1  0  0  0  0
 34 51  1  0  0  0  0
M  END
>  <REMARK>
 VINA RESULT:      -8.7      2.228      3.637
  3 active torsions:
  status: ('A' for Active; 'I' for Inactive)
    1  A    between atoms: C_2  and  C_3 
    2  A    between atoms: C_7  and  N_8 
       I    between atoms: N_8  and  C_10 
       I    between atoms: C_10  and  N_12 
    3  A    between atoms: N_12  and  C_14 

>  <TORSDO>
F 3

$$$$
