resistance_project/docking/5319283d3047ac55/Q9UM73_L1196M/docked/molecule_0011_out.pdbqt
 OpenBabel09232609193D

 72 76  0  0  1  0  0  0  0  0999 V2000
   29.7350   46.1290    8.0980 C   0  0  0  0  0  0  0  0  0  0  0  0
   28.5220   46.7850    8.2310 C   0  0  0  0  0  0  0  0  0  0  0  0
   27.7930   46.0890    9.1200 N   0  0  0  0  0  0  0  0  0  0  0  0
   26.8500   46.3340    9.4200 H   0  0  0  0  0  0  0  0  0  0  0  0
   28.4880   45.0200    9.5560 C   0  0  1  0  0  0  0  0  0  0  0  0
   28.1900   44.0370   10.4360 N   0  0  0  0  0  0  0  0  0  0  0  0
   27.2820   44.0370   10.9000 H   0  0  0  0  0  0  0  0  0  0  0  0
   29.0720   43.0630   10.7060 C   0  0  0  0  0  0  0  0  0  0  0  0
   30.2880   43.1040   10.0550 C   0  0  0  0  0  0  0  0  0  0  0  0
   30.5600   44.0920    9.1830 N   0  0  0  0  0  0  0  0  0  0  0  0
   31.4650   44.1050    8.7120 H   0  0  0  0  0  0  0  0  0  0  0  0
   29.6720   45.0610    8.9200 N   0  0  0  0  0  0  0  0  0  0  0  0
   28.0660   47.9990    7.5660 C   0  0  0  0  0  0  0  0  0  0  0  0
   28.9220   48.8790    6.9310 C   0  0  0  0  0  0  0  0  0  0  0  0
   28.4140   50.0260    6.3120 C   0  0  0  0  0  0  0  0  0  0  0  0
   27.0460   50.2750    6.3380 C   0  0  0  0  0  0  0  0  0  0  0  0
   26.1910   49.4060    6.9660 C   0  0  0  0  0  0  0  0  0  0  0  0
   26.7160   48.2810    7.5710 C   0  0  0  0  0  0  0  0  0  0  0  0
   26.4480   51.4790    5.6970 C   0  0  0  0  0  0  0  0  0  0  0  0
   27.1440   52.6490    6.1670 N   0  0  0  0  0  0  0  0  0  0  0  0
   26.8660   53.8250    5.3710 C   0  0  0  0  0  0  0  0  0  0  0  0
   26.7520   54.9840    6.3370 C   0  0  0  0  0  0  0  0  0  0  0  0
   26.4100   54.3550    7.6700 C   0  0  1  0  0  0  0  0  0  0  0  0
   24.9240   54.4660    7.9700 C   0  0  0  0  0  0  0  0  0  0  0  0
   26.8270   52.9310    7.5310 C   0  0  0  0  0  0  0  0  0  0  0  0
   30.8270   46.5500    7.2270 C   0  0  0  0  0  0  0  0  0  0  0  0
   30.8870   46.1460    5.9100 C   0  0  0  0  0  0  0  0  0  0  0  0
   31.9020   46.5200    5.0510 C   0  0  0  0  0  0  0  0  0  0  0  0
   32.9210   47.3430    5.5210 C   0  0  0  0  0  0  0  0  0  0  0  0
   32.8840   47.7560    6.8190 C   0  0  0  0  0  0  0  0  0  0  0  0
   31.8540   47.3670    7.6670 C   0  0  0  0  0  0  0  0  0  0  0  0
   33.9760   47.7070    4.5460 C   0  0  0  0  0  0  0  0  0  0  0  0
   34.4030   46.5540    3.7670 N   0  0  0  0  0  0  0  0  0  0  0  0
   35.6520   46.0810    4.3840 C   0  0  0  0  0  0  0  0  0  0  0  0
   35.4550   44.7300    5.0350 C   0  0  0  0  0  0  0  0  0  0  0  0
   34.8250   47.1180    2.4740 C   0  0  0  0  0  0  0  0  0  0  0  0
   33.5940   47.4360    1.6180 C   0  0  0  0  0  0  0  0  0  0  0  0
   27.8074   44.5629   10.2435 H   0  0  0  0  0  0  0  0  0  0  0  0
   28.8492   42.3105   11.3761 H   0  0  0  0  0  0  0  0  0  0  0  0
   30.9928   42.3727   10.2380 H   0  0  0  0  0  0  0  0  0  0  0  0
   29.9364   48.6898    6.9135 H   0  0  0  0  0  0  0  0  0  0  0  0
   29.0517   50.6846    5.8381 H   0  0  0  0  0  0  0  0  0  0  0  0
   25.1756   49.5890    6.9861 H   0  0  0  0  0  0  0  0  0  0  0  0
   26.0738   47.6266    8.0447 H   0  0  0  0  0  0  0  0  0  0  0  0
   26.5447   51.4059    4.6339 H   0  0  0  0  0  0  0  0  0  0  0  0
   25.4104   51.5475    5.9490 H   0  0  0  0  0  0  0  0  0  0  0  0
   25.9485   53.6995    4.8350 H   0  0  0  0  0  0  0  0  0  0  0  0
   27.6401   53.9964    4.6524 H   0  0  0  0  0  0  0  0  0  0  0  0
   25.9777   55.6550    6.0287 H   0  0  0  0  0  0  0  0  0  0  0  0
   27.6547   55.5565    6.3841 H   0  0  0  0  0  0  0  0  0  0  0  0
   26.9040   54.8438    8.4836 H   0  0  0  0  0  0  0  0  0  0  0  0
   24.3662   53.9932    7.1889 H   0  0  0  0  0  0  0  0  0  0  0  0
   24.6485   55.4981    8.0306 H   0  0  0  0  0  0  0  0  0  0  0  0
   24.7113   53.9848    8.9017 H   0  0  0  0  0  0  0  0  0  0  0  0
   27.6886   52.7524    8.1399 H   0  0  0  0  0  0  0  0  0  0  0  0
   26.0248   52.2964    7.8451 H   0  0  0  0  0  0  0  0  0  0  0  0
   30.1378   45.5350    5.5488 H   0  0  0  0  0  0  0  0  0  0  0  0
   31.9046   46.1929    4.0722 H   0  0  0  0  0  0  0  0  0  0  0  0
   33.6333   48.3679    7.1783 H   0  0  0  0  0  0  0  0  0  0  0  0
   31.8549   47.6943    8.6457 H   0  0  0  0  0  0  0  0  0  0  0  0
   33.5929   48.4530    3.8815 H   0  0  0  0  0  0  0  0  0  0  0  0
   34.8208   48.0775    5.0881 H   0  0  0  0  0  0  0  0  0  0  0  0
   35.9645   46.7853    5.1264 H   0  0  0  0  0  0  0  0  0  0  0  0
   36.3960   45.9873    3.6208 H   0  0  0  0  0  0  0  0  0  0  0  0
   34.7126   44.8083    5.8015 H   0  0  0  0  0  0  0  0  0  0  0  0
   36.3787   44.4033    5.4651 H   0  0  0  0  0  0  0  0  0  0  0  0
   35.1344   44.0227    4.2989 H   0  0  0  0  0  0  0  0  0  0  0  0
   35.3814   48.0162    2.6432 H   0  0  0  0  0  0  0  0  0  0  0  0
   35.4366   46.4054    1.9612 H   0  0  0  0  0  0  0  0  0  0  0  0
   32.9796   48.1486    2.1276 H   0  0  0  0  0  0  0  0  0  0  0  0
   33.0353   46.5391    1.4496 H   0  0  0  0  0  0  0  0  0  0  0  0
   33.9077   47.8423    0.6792 H   0  0  0  0  0  0  0  0  0  0  0  0
  1  2  2  0  0  0  0
  1 12  1  0  0  0  0
  2  3  1  0  0  0  0
  3  4  1  0  0  0  0
  3  5  1  0  0  0  0
  5  6  1  0  0  0  0
  5 38  1  1  0  0  0
  6  8  1  0  0  0  0
  6  7  1  0  0  0  0
  8 39  1  0  0  0  0
  9  8  2  0  0  0  0
  9 40  1  0  0  0  0
 10  9  1  0  0  0  0
 11 10  1  0  0  0  0
 12 10  1  0  0  0  0
 12  5  1  0  0  0  0
 13 18  1  0  0  0  0
 13  2  1  0  0  0  0
 14 13  2  0  0  0  0
 14 41  1  0  0  0  0
 15 16  2  0  0  0  0
 15 14  1  0  0  0  0
 15 42  1  0  0  0  0
 16 17  1  0  0  0  0
 17 18  2  0  0  0  0
 17 43  1  0  0  0  0
 18 44  1  0  0  0  0
 19 20  1  0  0  0  0
 19 16  1  0  0  0  0
 19 45  1  0  0  0  0
 19 46  1  0  0  0  0
 20 25  1  0  0  0  0
 21 20  1  0  0  0  0
 21 22  1  0  0  0  0
 21 47  1  0  0  0  0
 21 48  1  0  0  0  0
 22 23  1  0  0  0  0
 22 49  1  0  0  0  0
 22 50  1  0  0  0  0
 23 24  1  0  0  0  0
 23 51  1  1  0  0  0
 24 52  1  0  0  0  0
 24 53  1  0  0  0  0
 24 54  1  0  0  0  0
 25 23  1  0  0  0  0
 25 55  1  0  0  0  0
 25 56  1  0  0  0  0
 26 31  1  0  0  0  0
 26  1  1  0  0  0  0
 27 26  2  0  0  0  0
 27 57  1  0  0  0  0
 28 29  2  0  0  0  0
 28 27  1  0  0  0  0
 28 58  1  0  0  0  0
 29 30  1  0  0  0  0
 30 31  2  0  0  0  0
 30 59  1  0  0  0  0
 31 60  1  0  0  0  0
 32 29  1  0  0  0  0
 32 61  1  0  0  0  0
 32 62  1  0  0  0  0
 33 34  1  0  0  0  0
 33 32  1  0  0  0  0
 34 35  1  0  0  0  0
 34 63  1  0  0  0  0
 34 64  1  0  0  0  0
 35 65  1  0  0  0  0
 35 66  1  0  0  0  0
 35 67  1  0  0  0  0
 36 33  1  0  0  0  0
 36 68  1  0  0  0  0
 36 69  1  0  0  0  0
 37 36  1  0  0  0  0
 37 70  1  0  0  0  0
 37 71  1  0  0  0  0
 37 72  1  0  0  0  0
M  END
>  <MODEL>
1

>  <REMARK>
 VINA RESULT:      -7.6      0.000      0.000
  8 active torsions:
  status: ('A' for Active; 'I' for Inactive)
    1  A    between atoms: C_2  and  N_3 
    2  A    between atoms: N_3  and  C_4 
    3  A    between atoms: N_3  and  C_6 
    4  A    between atoms: C_6  and  C_7 
    5  A    between atoms: C_10  and  C_11 
    6  A    between atoms: C_12  and  C_13 
    7  A    between atoms: C_16  and  C_17 
    8  A    between atoms: C_17  and  N_18 

>  <TORSDO>
F 8

$$$$
resistance_project/docking/5319283d3047ac55/Q9UM73_L1196M/docked/molecule_0011_out.pdbqt
 OpenBabel09232609193D

 72 76  0  0  1  0  0  0  0  0999 V2000
   29.5330   46.0330    8.1650 C   0  0  0  0  0  0  0  0  0  0  0  0
   28.2770   46.5960    8.3180 C   0  0  0  0  0  0  0  0  0  0  0  0
   27.6240   45.8580    9.2330 N   0  0  0  0  0  0  0  0  0  0  0  0
   26.6720   46.0340    9.5520 H   0  0  0  0  0  0  0  0  0  0  0  0
   28.4100   44.8520    9.6650 C   0  0  2  0  0  0  0  0  0  0  0  0
   28.2090   43.8620   10.5640 N   0  0  0  0  0  0  0  0  0  0  0  0
   27.3150   43.7970   11.0500 H   0  0  0  0  0  0  0  0  0  0  0  0
   29.1700   42.9620   10.8260 C   0  0  0  0  0  0  0  0  0  0  0  0
   30.3640   43.0880   10.1450 C   0  0  0  0  0  0  0  0  0  0  0  0
   30.5390   44.0820    9.2550 N   0  0  0  0  0  0  0  0  0  0  0  0
   31.4290   44.1580    8.7620 H   0  0  0  0  0  0  0  0  0  0  0  0
   29.5730   44.9760    9.0010 N   0  0  0  0  0  0  0  0  0  0  0  0
   27.7130   47.7620    7.6500 C   0  0  0  0  0  0  0  0  0  0  0  0
   28.4880   48.7340    7.0460 C   0  0  0  0  0  0  0  0  0  0  0  0
   27.8790   49.8260    6.4210 C   0  0  0  0  0  0  0  0  0  0  0  0
   26.4910   49.9300    6.4100 C   0  0  0  0  0  0  0  0  0  0  0  0
   25.7170   48.9690    7.0070 C   0  0  0  0  0  0  0  0  0  0  0  0
   26.3420   47.9000    7.6190 C   0  0  0  0  0  0  0  0  0  0  0  0
   25.7880   51.0700    5.7610 C   0  0  0  0  0  0  0  0  0  0  0  0
   25.0110   50.5680    4.6570 N   0  0  0  0  0  0  0  0  0  0  0  0
   23.6590   51.0830    4.6430 C   0  0  0  0  0  0  0  0  0  0  0  0
   23.3140   51.3530    3.1930 C   0  0  0  0  0  0  0  0  0  0  0  0
   24.6470   51.5190    2.4960 C   0  0  1  0  0  0  0  0  0  0  0  0
   24.9830   52.9860    2.2830 C   0  0  0  0  0  0  0  0  0  0  0  0
   25.6320   50.8660    3.4050 C   0  0  0  0  0  0  0  0  0  0  0  0
   30.5700   46.5250    7.2640 C   0  0  0  0  0  0  0  0  0  0  0  0
   30.6410   46.0960    5.9550 C   0  0  0  0  0  0  0  0  0  0  0  0
   31.6040   46.5350    5.0670 C   0  0  0  0  0  0  0  0  0  0  0  0
   32.5570   47.4540    5.4990 C   0  0  0  0  0  0  0  0  0  0  0  0
   32.5070   47.8930    6.7880 C   0  0  0  0  0  0  0  0  0  0  0  0
   31.5300   47.4380    7.6640 C   0  0  0  0  0  0  0  0  0  0  0  0
   33.5590   47.8830    4.4950 C   0  0  0  0  0  0  0  0  0  0  0  0
   34.2770   46.7450    3.9370 N   0  0  0  0  0  0  0  0  0  0  0  0
   35.7010   46.9770    4.2250 C   0  0  0  0  0  0  0  0  0  0  0  0
   36.3900   45.6860    4.6120 C   0  0  0  0  0  0  0  0  0  0  0  0
   34.1660   46.9180    2.4800 C   0  0  0  0  0  0  0  0  0  0  0  0
   33.4120   45.7310    1.8710 C   0  0  0  0  0  0  0  0  0  0  0  0
   27.7824   44.3489   10.3707 H   0  0  0  0  0  0  0  0  0  0  0  0
   29.0216   42.2044   11.5108 H   0  0  0  0  0  0  0  0  0  0  0  0
   31.1273   42.4157   10.3195 H   0  0  0  0  0  0  0  0  0  0  0  0
   29.5168   48.6535    7.0564 H   0  0  0  0  0  0  0  0  0  0  0  0
   28.4564   50.5524    5.9694 H   0  0  0  0  0  0  0  0  0  0  0  0
   24.6877   49.0427    6.9994 H   0  0  0  0  0  0  0  0  0  0  0  0
   25.7601   47.1770    8.0703 H   0  0  0  0  0  0  0  0  0  0  0  0
   25.1415   51.5443    6.4696 H   0  0  0  0  0  0  0  0  0  0  0  0
   26.5022   51.7842    5.4080 H   0  0  0  0  0  0  0  0  0  0  0  0
   22.9847   50.3614    5.0548 H   0  0  0  0  0  0  0  0  0  0  0  0
   23.5790   51.9734    5.2310 H   0  0  0  0  0  0  0  0  0  0  0  0
   22.7719   50.5301    2.7762 H   0  0  0  0  0  0  0  0  0  0  0  0
   22.6930   52.2173    3.0825 H   0  0  0  0  0  0  0  0  0  0  0  0
   24.6461   51.0808    1.5198 H   0  0  0  0  0  0  0  0  0  0  0  0
   25.0008   53.4886    3.2274 H   0  0  0  0  0  0  0  0  0  0  0  0
   24.2420   53.4340    1.6545 H   0  0  0  0  0  0  0  0  0  0  0  0
   25.9427   53.0681    1.8171 H   0  0  0  0  0  0  0  0  0  0  0  0
   26.4584   51.5262    3.5665 H   0  0  0  0  0  0  0  0  0  0  0  0
   25.9784   49.9580    2.9572 H   0  0  0  0  0  0  0  0  0  0  0  0
   29.9410   45.4142    5.6230 H   0  0  0  0  0  0  0  0  0  0  0  0
   31.6170   46.1863    4.0958 H   0  0  0  0  0  0  0  0  0  0  0  0
   33.2070   48.5752    7.1190 H   0  0  0  0  0  0  0  0  0  0  0  0
   31.5197   47.7885    8.6346 H   0  0  0  0  0  0  0  0  0  0  0  0
   33.0584   48.4003    3.7034 H   0  0  0  0  0  0  0  0  0  0  0  0
   34.2674   48.5219    4.9796 H   0  0  0  0  0  0  0  0  0  0  0  0
   35.7863   47.6752    5.0313 H   0  0  0  0  0  0  0  0  0  0  0  0
   36.1696   47.3645    3.3446 H   0  0  0  0  0  0  0  0  0  0  0  0
   35.9310   45.2867    5.4922 H   0  0  0  0  0  0  0  0  0  0  0  0
   37.4248   45.8780    4.8051 H   0  0  0  0  0  0  0  0  0  0  0  0
   36.3013   44.9807    3.8122 H   0  0  0  0  0  0  0  0  0  0  0  0
   33.6341   47.8222    2.2694 H   0  0  0  0  0  0  0  0  0  0  0  0
   35.1467   46.9685    2.0550 H   0  0  0  0  0  0  0  0  0  0  0  0
   32.4305   45.6772    2.2937 H   0  0  0  0  0  0  0  0  0  0  0  0
   33.9416   44.8256    2.0825 H   0  0  0  0  0  0  0  0  0  0  0  0
   33.3375   45.8614    0.8116 H   0  0  0  0  0  0  0  0  0  0  0  0
  1  2  2  0  0  0  0
  1 12  1  0  0  0  0
  2  3  1  0  0  0  0
  3  4  1  0  0  0  0
  3  5  1  0  0  0  0
  5  6  1  0  0  0  0
  5 38  1  6  0  0  0
  6  8  1  0  0  0  0
  6  7  1  0  0  0  0
  8 39  1  0  0  0  0
  9  8  2  0  0  0  0
  9 40  1  0  0  0  0
 10  9  1  0  0  0  0
 11 10  1  0  0  0  0
 12 10  1  0  0  0  0
 12  5  1  0  0  0  0
 13  2  1  0  0  0  0
 14 13  2  0  0  0  0
 14 41  1  0  0  0  0
 15 14  1  0  0  0  0
 15 42  1  0  0  0  0
 16 15  2  0  0  0  0
 16 17  1  0  0  0  0
 17 18  2  0  0  0  0
 17 43  1  0  0  0  0
 18 13  1  0  0  0  0
 18 44  1  0  0  0  0
 19 16  1  0  0  0  0
 19 45  1  0  0  0  0
 19 46  1  0  0  0  0
 20 19  1  0  0  0  0
 21 20  1  0  0  0  0
 21 47  1  0  0  0  0
 21 48  1  0  0  0  0
 22 21  1  0  0  0  0
 22 49  1  0  0  0  0
 22 50  1  0  0  0  0
 23 22  1  0  0  0  0
 23 25  1  0  0  0  0
 23 51  1  6  0  0  0
 24 23  1  0  0  0  0
 24 52  1  0  0  0  0
 24 53  1  0  0  0  0
 24 54  1  0  0  0  0
 25 20  1  0  0  0  0
 25 55  1  0  0  0  0
 25 56  1  0  0  0  0
 26 31  1  0  0  0  0
 26  1  1  0  0  0  0
 27 26  2  0  0  0  0
 27 57  1  0  0  0  0
 28 29  2  0  0  0  0
 28 27  1  0  0  0  0
 28 58  1  0  0  0  0
 29 30  1  0  0  0  0
 30 31  2  0  0  0  0
 30 59  1  0  0  0  0
 31 60  1  0  0  0  0
 32 29  1  0  0  0  0
 32 61  1  0  0  0  0
 32 62  1  0  0  0  0
 33 34  1  0  0  0  0
 33 32  1  0  0  0  0
 34 35  1  0  0  0  0
 34 63  1  0  0  0  0
 34 64  1  0  0  0  0
 35 65  1  0  0  0  0
 35 66  1  0  0  0  0
 35 67  1  0  0  0  0
 36 33  1  0  0  0  0
 36 68  1  0  0  0  0
 36 69  1  0  0  0  0
 37 36  1  0  0  0  0
 37 70  1  0  0  0  0
 37 71  1  0  0  0  0
 37 72  1  0  0  0  0
M  END
>  <REMARK>
 VINA RESULT:      -7.5      1.578      2.234
  8 active torsions:
  status: ('A' for Active; 'I' for Inactive)
    1  A    between atoms: C_2  and  N_3 
    2  A    between atoms: N_3  and  C_4 
    3  A    between atoms: N_3  and  C_6 
    4  A    between atoms: C_6  and  C_7 
    5  A    between atoms: C_10  and  C_11 
    6  A    between atoms: C_12  and  C_13 
    7  A    between atoms: C_16  and  C_17 
    8  A    between atoms: C_17  and  N_18 

>  <TORSDO>
F 8

$$$$
resistance_project/docking/5319283d3047ac55/Q9UM73_L1196M/docked/molecule_0011_out.pdbqt
 OpenBabel09232609193D

 72 76  0  0  1  0  0  0  0  0999 V2000
   29.7370   47.4240    6.8680 C   0  0  0  0  0  0  0  0  0  0  0  0
   29.5110   46.5400    7.9100 C   0  0  0  0  0  0  0  0  0  0  0  0
   28.2930   46.8200    8.4070 N   0  0  0  0  0  0  0  0  0  0  0  0
   27.8550   46.3290    9.1860 H   0  0  0  0  0  0  0  0  0  0  0  0
   27.7380   47.8420    7.7280 C   0  0  2  0  0  0  0  0  0  0  0  0
   26.5490   48.4760    7.8480 N   0  0  0  0  0  0  0  0  0  0  0  0
   25.8930   48.1800    8.5690 H   0  0  0  0  0  0  0  0  0  0  0  0
   26.2230   49.4890    7.0310 C   0  0  0  0  0  0  0  0  0  0  0  0
   27.1420   49.8560    6.0690 C   0  0  0  0  0  0  0  0  0  0  0  0
   28.3180   49.2090    5.9700 N   0  0  0  0  0  0  0  0  0  0  0  0
   28.9850   49.4950    5.2530 H   0  0  0  0  0  0  0  0  0  0  0  0
   28.6360   48.1980    6.7910 N   0  0  0  0  0  0  0  0  0  0  0  0
   30.3820   45.4870    8.4160 C   0  0  0  0  0  0  0  0  0  0  0  0
   29.9780   44.1730    8.5530 C   0  0  0  0  0  0  0  0  0  0  0  0
   30.8680   43.2140    9.0450 C   0  0  0  0  0  0  0  0  0  0  0  0
   32.1620   43.5880    9.3950 C   0  0  0  0  0  0  0  0  0  0  0  0
   32.5710   44.8900    9.2610 C   0  0  0  0  0  0  0  0  0  0  0  0
   31.6720   45.8190    8.7740 C   0  0  0  0  0  0  0  0  0  0  0  0
   33.1530   42.6120    9.9240 C   0  0  0  0  0  0  0  0  0  0  0  0
   34.0990   42.3010    8.8830 N   0  0  0  0  0  0  0  0  0  0  0  0
   33.7780   42.9380    7.6240 C   0  0  0  0  0  0  0  0  0  0  0  0
   35.0920   43.3860    7.0190 C   0  0  0  0  0  0  0  0  0  0  0  0
   36.0460   43.4980    8.1880 C   0  0  1  0  0  0  0  0  0  0  0  0
   36.2080   44.9410    8.6360 C   0  0  0  0  0  0  0  0  0  0  0  0
   35.4280   42.6670    9.2600 C   0  0  0  0  0  0  0  0  0  0  0  0
   30.9440   47.4680    6.0500 C   0  0  0  0  0  0  0  0  0  0  0  0
   31.3070   46.4000    5.2560 C   0  0  0  0  0  0  0  0  0  0  0  0
   32.4400   46.3980    4.4660 C   0  0  0  0  0  0  0  0  0  0  0  0
   33.2670   47.5180    4.4600 C   0  0  0  0  0  0  0  0  0  0  0  0
   32.9290   48.5850    5.2370 C   0  0  0  0  0  0  0  0  0  0  0  0
   31.7850   48.5670    6.0240 C   0  0  0  0  0  0  0  0  0  0  0  0
   34.4640   47.4480    3.5890 C   0  0  0  0  0  0  0  0  0  0  0  0
   35.4510   46.5150    4.1130 N   0  0  0  0  0  0  0  0  0  0  0  0
   36.6330   47.3190    4.4610 C   0  0  0  0  0  0  0  0  0  0  0  0
   37.4690   46.6230    5.5120 C   0  0  0  0  0  0  0  0  0  0  0  0
   35.8750   45.7300    2.9410 C   0  0  0  0  0  0  0  0  0  0  0  0
   35.6720   44.2360    3.2150 C   0  0  0  0  0  0  0  0  0  0  0  0
   26.7930   47.9632    8.2151 H   0  0  0  0  0  0  0  0  0  0  0  0
   25.3175   49.9763    7.1187 H   0  0  0  0  0  0  0  0  0  0  0  0
   26.9263   50.6306    5.4221 H   0  0  0  0  0  0  0  0  0  0  0  0
   29.0179   43.8991    8.2918 H   0  0  0  0  0  0  0  0  0  0  0  0
   30.5667   42.2324    9.1483 H   0  0  0  0  0  0  0  0  0  0  0  0
   33.5303   45.1700    9.5186 H   0  0  0  0  0  0  0  0  0  0  0  0
   31.9775   46.7997    8.6742 H   0  0  0  0  0  0  0  0  0  0  0  0
   33.6661   43.0381   10.7607 H   0  0  0  0  0  0  0  0  0  0  0  0
   32.6527   41.7202   10.2391 H   0  0  0  0  0  0  0  0  0  0  0  0
   33.2893   42.2437    6.9729 H   0  0  0  0  0  0  0  0  0  0  0  0
   33.1168   43.7668    7.7682 H   0  0  0  0  0  0  0  0  0  0  0  0
   34.9789   44.3332    6.5343 H   0  0  0  0  0  0  0  0  0  0  0  0
   35.4459   42.7013    6.2768 H   0  0  0  0  0  0  0  0  0  0  0  0
   37.0306   43.1643    7.9348 H   0  0  0  0  0  0  0  0  0  0  0  0
   35.2527   45.3399    8.9063 H   0  0  0  0  0  0  0  0  0  0  0  0
   36.6223   45.5184    7.8361 H   0  0  0  0  0  0  0  0  0  0  0  0
   36.8631   44.9807    9.4811 H   0  0  0  0  0  0  0  0  0  0  0  0
   35.3972   43.2277   10.1708 H   0  0  0  0  0  0  0  0  0  0  0  0
   36.0117   41.7815    9.4014 H   0  0  0  0  0  0  0  0  0  0  0  0
   30.7035   45.5629    5.2521 H   0  0  0  0  0  0  0  0  0  0  0  0
   32.6709   45.5757    3.8868 H   0  0  0  0  0  0  0  0  0  0  0  0
   33.5338   49.4212    5.2407 H   0  0  0  0  0  0  0  0  0  0  0  0
   31.5569   49.3909    6.6020 H   0  0  0  0  0  0  0  0  0  0  0  0
   34.1655   47.1267    2.6130 H   0  0  0  0  0  0  0  0  0  0  0  0
   34.9085   48.4205    3.5504 H   0  0  0  0  0  0  0  0  0  0  0  0
   36.3126   48.2671    4.8396 H   0  0  0  0  0  0  0  0  0  0  0  0
   37.2286   47.4495    3.5817 H   0  0  0  0  0  0  0  0  0  0  0  0
   36.8856   46.4856    6.3984 H   0  0  0  0  0  0  0  0  0  0  0  0
   38.3269   47.2209    5.7388 H   0  0  0  0  0  0  0  0  0  0  0  0
   37.7859   45.6702    5.1423 H   0  0  0  0  0  0  0  0  0  0  0  0
   35.2919   46.0176    2.0912 H   0  0  0  0  0  0  0  0  0  0  0  0
   36.9108   45.9159    2.7476 H   0  0  0  0  0  0  0  0  0  0  0  0
   34.6369   44.0464    3.4089 H   0  0  0  0  0  0  0  0  0  0  0  0
   36.2530   43.9473    4.0659 H   0  0  0  0  0  0  0  0  0  0  0  0
   35.9843   43.6712    2.3616 H   0  0  0  0  0  0  0  0  0  0  0  0
  1  2  2  0  0  0  0
  2  3  1  0  0  0  0
  2 13  1  0  0  0  0
  3  4  1  0  0  0  0
  5  6  1  0  0  0  0
  5  3  1  0  0  0  0
  5 38  1  1  0  0  0
  6  7  1  0  0  0  0
  8  6  1  0  0  0  0
  8 39  1  0  0  0  0
  9  8  2  0  0  0  0
  9 40  1  0  0  0  0
 10  9  1  0  0  0  0
 10 12  1  0  0  0  0
 11 10  1  0  0  0  0
 12  1  1  0  0  0  0
 12  5  1  0  0  0  0
 13 14  2  0  0  0  0
 13 18  1  0  0  0  0
 14 15  1  0  0  0  0
 14 41  1  0  0  0  0
 15 16  2  0  0  0  0
 15 42  1  0  0  0  0
 16 19  1  0  0  0  0
 17 16  1  0  0  0  0
 17 43  1  0  0  0  0
 18 17  2  0  0  0  0
 18 44  1  0  0  0  0
 19 45  1  0  0  0  0
 19 46  1  0  0  0  0
 20 25  1  0  0  0  0
 20 19  1  0  0  0  0
 21 20  1  0  0  0  0
 21 47  1  0  0  0  0
 21 48  1  0  0  0  0
 22 21  1  0  0  0  0
 22 23  1  0  0  0  0
 22 49  1  0  0  0  0
 22 50  1  0  0  0  0
 23 24  1  0  0  0  0
 23 25  1  0  0  0  0
 23 51  1  6  0  0  0
 24 52  1  0  0  0  0
 24 53  1  0  0  0  0
 24 54  1  0  0  0  0
 25 55  1  0  0  0  0
 25 56  1  0  0  0  0
 26  1  1  0  0  0  0
 27 26  2  0  0  0  0
 27 57  1  0  0  0  0
 28 27  1  0  0  0  0
 28 58  1  0  0  0  0
 29 28  2  0  0  0  0
 29 30  1  0  0  0  0
 30 31  2  0  0  0  0
 30 59  1  0  0  0  0
 31 26  1  0  0  0  0
 31 60  1  0  0  0  0
 32 33  1  0  0  0  0
 32 29  1  0  0  0  0
 32 61  1  0  0  0  0
 32 62  1  0  0  0  0
 33 34  1  0  0  0  0
 34 35  1  0  0  0  0
 34 63  1  0  0  0  0
 34 64  1  0  0  0  0
 35 65  1  0  0  0  0
 35 66  1  0  0  0  0
 35 67  1  0  0  0  0
 36 37  1  0  0  0  0
 36 33  1  0  0  0  0
 36 68  1  0  0  0  0
 36 69  1  0  0  0  0
 37 70  1  0  0  0  0
 37 71  1  0  0  0  0
 37 72  1  0  0  0  0
M  END
>  <REMARK>
 VINA RESULT:      -7.4      2.403      7.381
  8 active torsions:
  status: ('A' for Active; 'I' for Inactive)
    1  A    between atoms: C_2  and  N_3 
    2  A    between atoms: N_3  and  C_4 
    3  A    between atoms: N_3  and  C_6 
    4  A    between atoms: C_6  and  C_7 
    5  A    between atoms: C_10  and  C_11 
    6  A    between atoms: C_12  and  C_13 
    7  A    between atoms: C_16  and  C_17 
    8  A    between atoms: C_17  and  N_18 

>  <TORSDO>
F 8

$$$$
resistance_project/docking/5319283d3047ac55/Q9UM73_L1196M/docked/molecule_0011_out.pdbqt
 OpenBabel09232609193D

 72 76  0  0  1  0  0  0  0  0999 V2000
   29.6650   46.0980    8.1130 C   0  0  0  0  0  0  0  0  0  0  0  0
   28.4420   46.7330    8.2530 C   0  0  0  0  0  0  0  0  0  0  0  0
   27.7310   46.0240    9.1470 N   0  0  0  0  0  0  0  0  0  0  0  0
   26.7850   46.2520    9.4540 H   0  0  0  0  0  0  0  0  0  0  0  0
   28.4480   44.9670    9.5790 C   0  0  2  0  0  0  0  0  0  0  0  0
   28.1730   43.9800   10.4610 N   0  0  0  0  0  0  0  0  0  0  0  0
   27.2690   43.9630   10.9310 H   0  0  0  0  0  0  0  0  0  0  0  0
   29.0740   43.0210   10.7250 C   0  0  0  0  0  0  0  0  0  0  0  0
   30.2850   43.0840   10.0660 C   0  0  0  0  0  0  0  0  0  0  0  0
   30.5340   44.0770    9.1930 N   0  0  0  0  0  0  0  0  0  0  0  0
   31.4350   44.1060    8.7150 H   0  0  0  0  0  0  0  0  0  0  0  0
   29.6270   45.0300    8.9350 N   0  0  0  0  0  0  0  0  0  0  0  0
   27.9600   47.9390    7.5920 C   0  0  0  0  0  0  0  0  0  0  0  0
   28.7940   48.8260    6.9390 C   0  0  0  0  0  0  0  0  0  0  0  0
   28.2630   49.9640    6.3240 C   0  0  0  0  0  0  0  0  0  0  0  0
   26.8910   50.1970    6.3730 C   0  0  0  0  0  0  0  0  0  0  0  0
   26.0580   49.3210    7.0180 C   0  0  0  0  0  0  0  0  0  0  0  0
   26.6070   48.2050    7.6190 C   0  0  0  0  0  0  0  0  0  0  0  0
   26.2690   51.3910    5.7370 C   0  0  0  0  0  0  0  0  0  0  0  0
   27.0110   52.5630    6.1230 N   0  0  0  0  0  0  0  0  0  0  0  0
   26.7120   53.7140    5.2980 C   0  0  0  0  0  0  0  0  0  0  0  0
   26.6740   54.9110    6.2230 C   0  0  0  0  0  0  0  0  0  0  0  0
   26.3930   54.3400    7.5960 C   0  0  1  0  0  0  0  0  0  0  0  0
   24.9280   54.4930    7.9720 C   0  0  0  0  0  0  0  0  0  0  0  0
   26.7750   52.9020    7.4910 C   0  0  0  0  0  0  0  0  0  0  0  0
   30.7440   46.5390    7.2350 C   0  0  0  0  0  0  0  0  0  0  0  0
   31.7490   47.3620    7.6980 C   0  0  0  0  0  0  0  0  0  0  0  0
   32.7900   47.8030    6.9030 C   0  0  0  0  0  0  0  0  0  0  0  0
   32.8400   47.4080    5.5690 C   0  0  0  0  0  0  0  0  0  0  0  0
   31.8580   46.5940    5.0890 C   0  0  0  0  0  0  0  0  0  0  0  0
   30.8210   46.1620    5.9060 C   0  0  0  0  0  0  0  0  0  0  0  0
   33.9840   47.9160    4.7750 C   0  0  0  0  0  0  0  0  0  0  0  0
   34.1840   49.3440    4.9810 N   0  0  0  0  0  0  0  0  0  0  0  0
   33.4060   50.0230    3.9340 C   0  0  0  0  0  0  0  0  0  0  0  0
   32.3250   50.8900    4.5410 C   0  0  0  0  0  0  0  0  0  0  0  0
   35.5880   49.5770    4.6040 C   0  0  0  0  0  0  0  0  0  0  0  0
   36.4680   48.4450    5.1440 C   0  0  0  0  0  0  0  0  0  0  0  0
   27.7824   44.4931   10.2699 H   0  0  0  0  0  0  0  0  0  0  0  0
   28.8688   42.2643   11.3961 H   0  0  0  0  0  0  0  0  0  0  0  0
   31.0038   42.3652   10.2439 H   0  0  0  0  0  0  0  0  0  0  0  0
   29.8100   48.6485    6.9051 H   0  0  0  0  0  0  0  0  0  0  0  0
   28.8847   50.6278    5.8363 H   0  0  0  0  0  0  0  0  0  0  0  0
   25.0408   49.4915    7.0541 H   0  0  0  0  0  0  0  0  0  0  0  0
   25.9810   47.5452    8.1067 H   0  0  0  0  0  0  0  0  0  0  0  0
   26.2931   51.2848    4.6726 H   0  0  0  0  0  0  0  0  0  0  0  0
   25.2519   51.4838    6.0559 H   0  0  0  0  0  0  0  0  0  0  0  0
   25.7640   53.5880    4.8182 H   0  0  0  0  0  0  0  0  0  0  0  0
   27.4483   53.8415    4.5321 H   0  0  0  0  0  0  0  0  0  0  0  0
   25.8974   55.5867    5.9311 H   0  0  0  0  0  0  0  0  0  0  0  0
   27.5890   55.4652    6.1990 H   0  0  0  0  0  0  0  0  0  0  0  0
   26.9400   54.8495    8.3615 H   0  0  0  0  0  0  0  0  0  0  0  0
   24.3192   54.0021    7.2418 H   0  0  0  0  0  0  0  0  0  0  0  0
   24.6753   55.5322    8.0067 H   0  0  0  0  0  0  0  0  0  0  0  0
   24.7583   54.0525    8.9322 H   0  0  0  0  0  0  0  0  0  0  0  0
   27.6652   52.7285    8.0587 H   0  0  0  0  0  0  0  0  0  0  0  0
   25.9801   52.2963    7.8732 H   0  0  0  0  0  0  0  0  0  0  0  0
   31.7225   47.6628    8.6848 H   0  0  0  0  0  0  0  0  0  0  0  0
   33.5213   48.4176    7.2935 H   0  0  0  0  0  0  0  0  0  0  0  0
   31.8853   46.2935    4.1021 H   0  0  0  0  0  0  0  0  0  0  0  0
   30.0919   45.5463    5.5131 H   0  0  0  0  0  0  0  0  0  0  0  0
   34.8707   47.3946    5.0697 H   0  0  0  0  0  0  0  0  0  0  0  0
   33.7727   47.7524    3.7389 H   0  0  0  0  0  0  0  0  0  0  0  0
   34.0619   50.6367    3.3526 H   0  0  0  0  0  0  0  0  0  0  0  0
   32.9431   49.2814    3.3170 H   0  0  0  0  0  0  0  0  0  0  0  0
   32.7737   51.6373    5.1615 H   0  0  0  0  0  0  0  0  0  0  0  0
   31.6701   50.2830    5.1306 H   0  0  0  0  0  0  0  0  0  0  0  0
   31.7667   51.3628    3.7602 H   0  0  0  0  0  0  0  0  0  0  0  0
   35.9160   50.5085    5.0158 H   0  0  0  0  0  0  0  0  0  0  0  0
   35.6661   49.6055    3.5372 H   0  0  0  0  0  0  0  0  0  0  0  0
   36.3929   48.4128    6.2109 H   0  0  0  0  0  0  0  0  0  0  0  0
   37.4857   48.6194    4.8632 H   0  0  0  0  0  0  0  0  0  0  0  0
   36.1400   47.5122    4.7351 H   0  0  0  0  0  0  0  0  0  0  0  0
  1  2  2  0  0  0  0
  1 12  1  0  0  0  0
  2  3  1  0  0  0  0
  3  4  1  0  0  0  0
  3  5  1  0  0  0  0
  5  6  1  0  0  0  0
  5 38  1  6  0  0  0
  6  8  1  0  0  0  0
  6  7  1  0  0  0  0
  8 39  1  0  0  0  0
  9  8  2  0  0  0  0
  9 40  1  0  0  0  0
 10  9  1  0  0  0  0
 11 10  1  0  0  0  0
 12 10  1  0  0  0  0
 12  5  1  0  0  0  0
 13 18  1  0  0  0  0
 13  2  1  0  0  0  0
 14 13  2  0  0  0  0
 14 41  1  0  0  0  0
 15 16  2  0  0  0  0
 15 14  1  0  0  0  0
 15 42  1  0  0  0  0
 16 17  1  0  0  0  0
 17 18  2  0  0  0  0
 17 43  1  0  0  0  0
 18 44  1  0  0  0  0
 19 20  1  0  0  0  0
 19 16  1  0  0  0  0
 19 45  1  0  0  0  0
 19 46  1  0  0  0  0
 20 25  1  0  0  0  0
 21 20  1  0  0  0  0
 21 22  1  0  0  0  0
 21 47  1  0  0  0  0
 21 48  1  0  0  0  0
 22 23  1  0  0  0  0
 22 49  1  0  0  0  0
 22 50  1  0  0  0  0
 23 24  1  0  0  0  0
 23 51  1  1  0  0  0
 24 52  1  0  0  0  0
 24 53  1  0  0  0  0
 24 54  1  0  0  0  0
 25 23  1  0  0  0  0
 25 55  1  0  0  0  0
 25 56  1  0  0  0  0
 26 27  1  0  0  0  0
 26  1  1  0  0  0  0
 27 57  1  0  0  0  0
 28 27  2  0  0  0  0
 28 58  1  0  0  0  0
 29 28  1  0  0  0  0
 30 29  2  0  0  0  0
 30 31  1  0  0  0  0
 30 59  1  0  0  0  0
 31 26  2  0  0  0  0
 31 60  1  0  0  0  0
 32 33  1  0  0  0  0
 32 29  1  0  0  0  0
 32 61  1  0  0  0  0
 32 62  1  0  0  0  0
 34 35  1  0  0  0  0
 34 33  1  0  0  0  0
 34 63  1  0  0  0  0
 34 64  1  0  0  0  0
 35 65  1  0  0  0  0
 35 66  1  0  0  0  0
 35 67  1  0  0  0  0
 36 33  1  0  0  0  0
 36 37  1  0  0  0  0
 36 68  1  0  0  0  0
 36 69  1  0  0  0  0
 37 70  1  0  0  0  0
 37 71  1  0  0  0  0
 37 72  1  0  0  0  0
M  END
>  <REMARK>
 VINA RESULT:      -7.4      1.156      1.983
  8 active torsions:
  status: ('A' for Active; 'I' for Inactive)
    1  A    between atoms: C_2  and  N_3 
    2  A    between atoms: N_3  and  C_4 
    3  A    between atoms: N_3  and  C_6 
    4  A    between atoms: C_6  and  C_7 
    5  A    between atoms: C_10  and  C_11 
    6  A    between atoms: C_12  and  C_13 
    7  A    between atoms: C_16  and  C_17 
    8  A    between atoms: C_17  and  N_18 

>  <TORSDO>
F 8

$$$$
resistance_project/docking/5319283d3047ac55/Q9UM73_L1196M/docked/molecule_0011_out.pdbqt
 OpenBabel09232609193D

 72 76  0  0  1  0  0  0  0  0999 V2000
   29.9190   47.2590    7.4990 C   0  0  0  0  0  0  0  0  0  0  0  0
   29.7800   45.9770    8.0070 C   0  0  0  0  0  0  0  0  0  0  0  0
   28.4730   45.7950    8.2630 N   0  0  0  0  0  0  0  0  0  0  0  0
   28.0670   44.9410    8.6460 H   0  0  0  0  0  0  0  0  0  0  0  0
   27.7770   46.9030    7.9410 C   0  0  2  0  0  0  0  0  0  0  0  0
   26.4610   47.2050    8.0140 N   0  0  0  0  0  0  0  0  0  0  0  0
   25.8050   46.5110    8.3720 H   0  0  0  0  0  0  0  0  0  0  0  0
   26.0060   48.4050    7.6230 C   0  0  0  0  0  0  0  0  0  0  0  0
   26.9290   49.3130    7.1440 C   0  0  0  0  0  0  0  0  0  0  0  0
   28.2340   48.9880    7.0820 N   0  0  0  0  0  0  0  0  0  0  0  0
   28.9010   49.6730    6.7260 H   0  0  0  0  0  0  0  0  0  0  0  0
   28.6790   47.7860    7.4760 N   0  0  0  0  0  0  0  0  0  0  0  0
   30.8110   44.9730    8.2400 C   0  0  0  0  0  0  0  0  0  0  0  0
   31.8130   44.6950    7.3320 C   0  0  0  0  0  0  0  0  0  0  0  0
   32.7710   43.7190    7.6220 C   0  0  0  0  0  0  0  0  0  0  0  0
   32.7090   43.0300    8.8300 C   0  0  0  0  0  0  0  0  0  0  0  0
   31.7170   43.3010    9.7370 C   0  0  0  0  0  0  0  0  0  0  0  0
   30.7820   44.2690    9.4260 C   0  0  0  0  0  0  0  0  0  0  0  0
   33.7000   41.9800    9.1940 C   0  0  0  0  0  0  0  0  0  0  0  0
   34.9200   42.6190    9.6150 N   0  0  0  0  0  0  0  0  0  0  0  0
   35.6390   43.2330    8.5190 C   0  0  0  0  0  0  0  0  0  0  0  0
   36.1930   44.5410    9.0440 C   0  0  0  0  0  0  0  0  0  0  0  0
   35.3140   44.8960   10.2240 C   0  0  1  0  0  0  0  0  0  0  0  0
   34.2730   45.9370    9.8470 C   0  0  0  0  0  0  0  0  0  0  0  0
   34.6710   43.6090   10.6150 C   0  0  0  0  0  0  0  0  0  0  0  0
   31.1800   47.8670    7.0880 C   0  0  0  0  0  0  0  0  0  0  0  0
   31.4970   48.0190    5.7540 C   0  0  0  0  0  0  0  0  0  0  0  0
   32.6780   48.5890    5.3190 C   0  0  0  0  0  0  0  0  0  0  0  0
   33.6030   49.0350    6.2590 C   0  0  0  0  0  0  0  0  0  0  0  0
   33.3120   48.8950    7.5830 C   0  0  0  0  0  0  0  0  0  0  0  0
   32.1180   48.3190    7.9980 C   0  0  0  0  0  0  0  0  0  0  0  0
   34.8470   49.6370    5.7230 C   0  0  0  0  0  0  0  0  0  0  0  0
   36.0310   48.9590    6.2320 N   0  0  0  0  0  0  0  0  0  0  0  0
   36.9640   50.0160    6.6500 C   0  0  0  0  0  0  0  0  0  0  0  0
   37.9910   49.4770    7.6200 C   0  0  0  0  0  0  0  0  0  0  0  0
   36.6580   48.3680    5.0380 C   0  0  0  0  0  0  0  0  0  0  0  0
   36.7030   46.8420    5.1740 C   0  0  0  0  0  0  0  0  0  0  0  0
   26.7718   46.6327    8.1889 H   0  0  0  0  0  0  0  0  0  0  0  0
   25.0028   48.6407    7.6783 H   0  0  0  0  0  0  0  0  0  0  0  0
   26.6170   50.2458    6.8318 H   0  0  0  0  0  0  0  0  0  0  0  0
   31.8549   45.2084    6.4378 H   0  0  0  0  0  0  0  0  0  0  0  0
   33.5204   43.5103    6.9439 H   0  0  0  0  0  0  0  0  0  0  0  0
   31.6699   42.7922   10.6336 H   0  0  0  0  0  0  0  0  0  0  0  0
   30.0335   44.4733   10.1065 H   0  0  0  0  0  0  0  0  0  0  0  0
   33.8940   41.3588    8.3447 H   0  0  0  0  0  0  0  0  0  0  0  0
   33.3138   41.3752    9.9877 H   0  0  0  0  0  0  0  0  0  0  0  0
   36.4369   42.5964    8.1982 H   0  0  0  0  0  0  0  0  0  0  0  0
   34.9966   43.3955    7.6789 H   0  0  0  0  0  0  0  0  0  0  0  0
   36.1381   45.3008    8.2926 H   0  0  0  0  0  0  0  0  0  0  0  0
   37.2229   44.4575    9.3220 H   0  0  0  0  0  0  0  0  0  0  0  0
   35.8751   45.3285   11.0259 H   0  0  0  0  0  0  0  0  0  0  0  0
   33.6720   45.5656    9.0434 H   0  0  0  0  0  0  0  0  0  0  0  0
   34.7635   46.8367    9.5392 H   0  0  0  0  0  0  0  0  0  0  0  0
   33.6505   46.1416   10.6929 H   0  0  0  0  0  0  0  0  0  0  0  0
   35.0754   43.2795   11.5493 H   0  0  0  0  0  0  0  0  0  0  0  0
   33.6155   43.7565   10.7104 H   0  0  0  0  0  0  0  0  0  0  0  0
   30.8199   47.6914    5.0475 H   0  0  0  0  0  0  0  0  0  0  0  0
   32.8720   48.6830    4.3098 H   0  0  0  0  0  0  0  0  0  0  0  0
   33.9899   49.2223    8.2890 H   0  0  0  0  0  0  0  0  0  0  0  0
   31.9267   48.2263    9.0079 H   0  0  0  0  0  0  0  0  0  0  0  0
   34.8366   49.5640    4.6555 H   0  0  0  0  0  0  0  0  0  0  0  0
   34.8861   50.6598    6.0347 H   0  0  0  0  0  0  0  0  0  0  0  0
   36.4135   50.8019    7.1235 H   0  0  0  0  0  0  0  0  0  0  0  0
   37.4726   50.3850    5.7839 H   0  0  0  0  0  0  0  0  0  0  0  0
   37.4963   49.1039    8.4924 H   0  0  0  0  0  0  0  0  0  0  0  0
   38.6638   50.2608    7.8992 H   0  0  0  0  0  0  0  0  0  0  0  0
   38.5397   48.6848    7.1549 H   0  0  0  0  0  0  0  0  0  0  0  0
   36.0880   48.6303    4.1713 H   0  0  0  0  0  0  0  0  0  0  0  0
   37.6556   48.7428    4.9418 H   0  0  0  0  0  0  0  0  0  0  0  0
   35.7070   46.4630    5.2705 H   0  0  0  0  0  0  0  0  0  0  0  0
   37.2708   46.5778    6.0416 H   0  0  0  0  0  0  0  0  0  0  0  0
   37.1626   46.4199    4.3048 H   0  0  0  0  0  0  0  0  0  0  0  0
  1  2  2  0  0  0  0
  2 13  1  0  0  0  0
  2  3  1  0  0  0  0
  3  4  1  0  0  0  0
  5  6  1  0  0  0  0
  5  3  1  0  0  0  0
  5 38  1  1  0  0  0
  6  7  1  0  0  0  0
  8  6  1  0  0  0  0
  8 39  1  0  0  0  0
  9  8  2  0  0  0  0
  9 40  1  0  0  0  0
 10  9  1  0  0  0  0
 10 12  1  0  0  0  0
 11 10  1  0  0  0  0
 12  1  1  0  0  0  0
 12  5  1  0  0  0  0
 13 18  2  0  0  0  0
 14 15  2  0  0  0  0
 14 13  1  0  0  0  0
 14 41  1  0  0  0  0
 15 16  1  0  0  0  0
 15 42  1  0  0  0  0
 16 19  1  0  0  0  0
 16 17  2  0  0  0  0
 17 43  1  0  0  0  0
 18 17  1  0  0  0  0
 18 44  1  0  0  0  0
 19 20  1  0  0  0  0
 19 45  1  0  0  0  0
 19 46  1  0  0  0  0
 20 25  1  0  0  0  0
 21 22  1  0  0  0  0
 21 20  1  0  0  0  0
 21 47  1  0  0  0  0
 21 48  1  0  0  0  0
 22 23  1  0  0  0  0
 22 49  1  0  0  0  0
 22 50  1  0  0  0  0
 23 25  1  0  0  0  0
 23 51  1  1  0  0  0
 24 23  1  0  0  0  0
 24 52  1  0  0  0  0
 24 53  1  0  0  0  0
 24 54  1  0  0  0  0
 25 55  1  0  0  0  0
 25 56  1  0  0  0  0
 26  1  1  0  0  0  0
 26 31  2  0  0  0  0
 27 26  1  0  0  0  0
 27 57  1  0  0  0  0
 28 27  2  0  0  0  0
 28 29  1  0  0  0  0
 28 58  1  0  0  0  0
 29 30  2  0  0  0  0
 30 31  1  0  0  0  0
 30 59  1  0  0  0  0
 31 60  1  0  0  0  0
 32 33  1  0  0  0  0
 32 29  1  0  0  0  0
 32 61  1  0  0  0  0
 32 62  1  0  0  0  0
 33 34  1  0  0  0  0
 34 35  1  0  0  0  0
 34 63  1  0  0  0  0
 34 64  1  0  0  0  0
 35 65  1  0  0  0  0
 35 66  1  0  0  0  0
 35 67  1  0  0  0  0
 36 37  1  0  0  0  0
 36 33  1  0  0  0  0
 36 68  1  0  0  0  0
 36 69  1  0  0  0  0
 37 70  1  0  0  0  0
 37 71  1  0  0  0  0
 37 72  1  0  0  0  0
M  END
>  <REMARK>
 VINA RESULT:      -7.3      2.806      7.370
  8 active torsions:
  status: ('A' for Active; 'I' for Inactive)
    1  A    between atoms: C_2  and  N_3 
    2  A    between atoms: N_3  and  C_4 
    3  A    between atoms: N_3  and  C_6 
    4  A    between atoms: C_6  and  C_7 
    5  A    between atoms: C_10  and  C_11 
    6  A    between atoms: C_12  and  C_13 
    7  A    between atoms: C_16  and  C_17 
    8  A    between atoms: C_17  and  N_18 

>  <TORSDO>
F 8

$$$$
resistance_project/docking/5319283d3047ac55/Q9UM73_L1196M/docked/molecule_0011_out.pdbqt
 OpenBabel09232609193D

 72 76  0  0  1  0  0  0  0  0999 V2000
   29.5040   46.1070    8.2220 C   0  0  0  0  0  0  0  0  0  0  0  0
   28.2120   46.6000    8.3130 C   0  0  0  0  0  0  0  0  0  0  0  0
   27.5520   45.8140    9.1810 N   0  0  0  0  0  0  0  0  0  0  0  0
   26.5750   45.9340    9.4500 H   0  0  0  0  0  0  0  0  0  0  0  0
   28.3650   44.8450    9.6430 C   0  0  2  0  0  0  0  0  0  0  0  0
   28.1700   43.8320   10.5170 N   0  0  0  0  0  0  0  0  0  0  0  0
   27.2560   43.7120   10.9520 H   0  0  0  0  0  0  0  0  0  0  0  0
   29.1620   42.9810   10.8200 C   0  0  0  0  0  0  0  0  0  0  0  0
   30.3830   43.1800   10.2080 C   0  0  0  0  0  0  0  0  0  0  0  0
   30.5520   44.1960    9.3410 N   0  0  0  0  0  0  0  0  0  0  0  0
   31.4620   44.3260    8.8990 H   0  0  0  0  0  0  0  0  0  0  0  0
   29.5550   45.0410    9.0450 N   0  0  0  0  0  0  0  0  0  0  0  0
   27.6240   47.7450    7.6290 C   0  0  0  0  0  0  0  0  0  0  0  0
   28.3740   48.6850    6.9490 C   0  0  0  0  0  0  0  0  0  0  0  0
   27.7420   49.7580    6.3140 C   0  0  0  0  0  0  0  0  0  0  0  0
   26.3560   49.8740    6.3700 C   0  0  0  0  0  0  0  0  0  0  0  0
   25.6060   48.9450    7.0430 C   0  0  0  0  0  0  0  0  0  0  0  0
   26.2540   47.8940    7.6630 C   0  0  0  0  0  0  0  0  0  0  0  0
   25.6290   50.9950    5.7140 C   0  0  0  0  0  0  0  0  0  0  0  0
   25.2410   50.5840    4.3890 N   0  0  0  0  0  0  0  0  0  0  0  0
   23.8060   50.5850    4.1980 C   0  0  0  0  0  0  0  0  0  0  0  0
   23.5560   51.1110    2.8010 C   0  0  0  0  0  0  0  0  0  0  0  0
   24.7920   51.9120    2.4540 C   0  0  1  0  0  0  0  0  0  0  0  0
   24.5560   53.4030    2.6370 C   0  0  0  0  0  0  0  0  0  0  0  0
   25.8390   51.4130    3.3900 C   0  0  0  0  0  0  0  0  0  0  0  0
   30.5600   46.6670    7.3850 C   0  0  0  0  0  0  0  0  0  0  0  0
   31.3760   47.6790    7.8480 C   0  0  0  0  0  0  0  0  0  0  0  0
   32.3870   48.2380    7.0900 C   0  0  0  0  0  0  0  0  0  0  0  0
   32.6050   47.7710    5.7970 C   0  0  0  0  0  0  0  0  0  0  0  0
   31.8120   46.7720    5.3190 C   0  0  0  0  0  0  0  0  0  0  0  0
   30.8000   46.2240    6.0970 C   0  0  0  0  0  0  0  0  0  0  0  0
   33.7070   48.4150    5.0430 C   0  0  0  0  0  0  0  0  0  0  0  0
   34.2230   49.5820    5.7430 N   0  0  0  0  0  0  0  0  0  0  0  0
   34.1180   50.7070    4.8010 C   0  0  0  0  0  0  0  0  0  0  0  0
   32.8030   51.4340    4.9730 C   0  0  0  0  0  0  0  0  0  0  0  0
   35.6700   49.3340    5.8570 C   0  0  0  0  0  0  0  0  0  0  0  0
   36.3550   50.5390    6.5100 C   0  0  0  0  0  0  0  0  0  0  0  0
   27.7254   44.2999   10.3054 H   0  0  0  0  0  0  0  0  0  0  0  0
   29.0174   42.2062   11.4861 H   0  0  0  0  0  0  0  0  0  0  0  0
   31.1707   42.5465   10.4161 H   0  0  0  0  0  0  0  0  0  0  0  0
   29.4013   48.5950    6.9098 H   0  0  0  0  0  0  0  0  0  0  0  0
   28.3007   50.4613    5.8058 H   0  0  0  0  0  0  0  0  0  0  0  0
   24.5783   49.0288    7.0858 H   0  0  0  0  0  0  0  0  0  0  0  0
   25.6910   47.1939    8.1709 H   0  0  0  0  0  0  0  0  0  0  0  0
   24.7575   51.2409    6.2840 H   0  0  0  0  0  0  0  0  0  0  0  0
   26.2625   51.8554    5.6570 H   0  0  0  0  0  0  0  0  0  0  0  0
   23.4202   49.5915    4.2929 H   0  0  0  0  0  0  0  0  0  0  0  0
   23.3195   51.1929    4.9320 H   0  0  0  0  0  0  0  0  0  0  0  0
   23.4271   50.3021    2.1126 H   0  0  0  0  0  0  0  0  0  0  0  0
   22.6667   51.7037    2.7491 H   0  0  0  0  0  0  0  0  0  0  0  0
   25.0745   51.7900    1.4292 H   0  0  0  0  0  0  0  0  0  0  0  0
   24.2677   53.5969    3.6490 H   0  0  0  0  0  0  0  0  0  0  0  0
   23.7779   53.7246    1.9766 H   0  0  0  0  0  0  0  0  0  0  0  0
   25.4563   53.9366    2.4141 H   0  0  0  0  0  0  0  0  0  0  0  0
   26.3204   52.2448    3.8604 H   0  0  0  0  0  0  0  0  0  0  0  0
   26.5591   50.8419    2.8421 H   0  0  0  0  0  0  0  0  0  0  0  0
   31.2241   48.0348    8.8047 H   0  0  0  0  0  0  0  0  0  0  0  0
   32.9737   48.9931    7.4781 H   0  0  0  0  0  0  0  0  0  0  0  0
   31.9656   46.4161    4.3626 H   0  0  0  0  0  0  0  0  0  0  0  0
   30.2145   45.4698    5.7053 H   0  0  0  0  0  0  0  0  0  0  0  0
   34.4999   47.7080    4.9148 H   0  0  0  0  0  0  0  0  0  0  0  0
   33.3237   48.7342    4.0964 H   0  0  0  0  0  0  0  0  0  0  0  0
   34.9219   51.3900    4.9800 H   0  0  0  0  0  0  0  0  0  0  0  0
   34.1686   50.3234    3.8034 H   0  0  0  0  0  0  0  0  0  0  0  0
   32.7383   51.8236    5.9674 H   0  0  0  0  0  0  0  0  0  0  0  0
   31.9946   50.7539    4.8030 H   0  0  0  0  0  0  0  0  0  0  0  0
   32.7458   52.2388    4.2702 H   0  0  0  0  0  0  0  0  0  0  0  0
   36.0812   49.1775    4.8816 H   0  0  0  0  0  0  0  0  0  0  0  0
   35.8324   48.4659    6.4612 H   0  0  0  0  0  0  0  0  0  0  0  0
   36.1949   51.4094    5.9087 H   0  0  0  0  0  0  0  0  0  0  0  0
   37.4051   50.3508    6.5926 H   0  0  0  0  0  0  0  0  0  0  0  0
   35.9434   50.6983    7.4848 H   0  0  0  0  0  0  0  0  0  0  0  0
  1  2  2  0  0  0  0
  1 12  1  0  0  0  0
  2  3  1  0  0  0  0
  3  4  1  0  0  0  0
  3  5  1  0  0  0  0
  5  6  1  0  0  0  0
  5 38  1  6  0  0  0
  6  8  1  0  0  0  0
  6  7  1  0  0  0  0
  8 39  1  0  0  0  0
  9  8  2  0  0  0  0
  9 40  1  0  0  0  0
 10  9  1  0  0  0  0
 11 10  1  0  0  0  0
 12 10  1  0  0  0  0
 12  5  1  0  0  0  0
 13 18  1  0  0  0  0
 13  2  1  0  0  0  0
 14 13  2  0  0  0  0
 14 41  1  0  0  0  0
 15 16  2  0  0  0  0
 15 14  1  0  0  0  0
 15 42  1  0  0  0  0
 16 17  1  0  0  0  0
 17 18  2  0  0  0  0
 17 43  1  0  0  0  0
 18 44  1  0  0  0  0
 19 16  1  0  0  0  0
 19 45  1  0  0  0  0
 19 46  1  0  0  0  0
 20 19  1  0  0  0  0
 21 20  1  0  0  0  0
 21 47  1  0  0  0  0
 21 48  1  0  0  0  0
 22 21  1  0  0  0  0
 22 49  1  0  0  0  0
 22 50  1  0  0  0  0
 23 24  1  0  0  0  0
 23 22  1  0  0  0  0
 23 25  1  0  0  0  0
 23 51  1  6  0  0  0
 24 52  1  0  0  0  0
 24 53  1  0  0  0  0
 24 54  1  0  0  0  0
 25 20  1  0  0  0  0
 25 55  1  0  0  0  0
 25 56  1  0  0  0  0
 26 27  1  0  0  0  0
 26  1  1  0  0  0  0
 27 57  1  0  0  0  0
 28 27  2  0  0  0  0
 28 58  1  0  0  0  0
 29 28  1  0  0  0  0
 30 29  2  0  0  0  0
 30 31  1  0  0  0  0
 30 59  1  0  0  0  0
 31 26  2  0  0  0  0
 31 60  1  0  0  0  0
 32 33  1  0  0  0  0
 32 29  1  0  0  0  0
 32 61  1  0  0  0  0
 32 62  1  0  0  0  0
 33 36  1  0  0  0  0
 34 35  1  0  0  0  0
 34 33  1  0  0  0  0
 34 63  1  0  0  0  0
 34 64  1  0  0  0  0
 35 65  1  0  0  0  0
 35 66  1  0  0  0  0
 35 67  1  0  0  0  0
 36 37  1  0  0  0  0
 36 68  1  0  0  0  0
 36 69  1  0  0  0  0
 37 70  1  0  0  0  0
 37 71  1  0  0  0  0
 37 72  1  0  0  0  0
M  END
>  <REMARK>
 VINA RESULT:      -7.3      2.089      3.123
  8 active torsions:
  status: ('A' for Active; 'I' for Inactive)
    1  A    between atoms: C_2  and  N_3 
    2  A    between atoms: N_3  and  C_4 
    3  A    between atoms: N_3  and  C_6 
    4  A    between atoms: C_6  and  C_7 
    5  A    between atoms: C_10  and  C_11 
    6  A    between atoms: C_12  and  C_13 
    7  A    between atoms: C_16  and  C_17 
    8  A    between atoms: C_17  and  N_18 

>  <TORSDO>
F 8

$$$$
resistance_project/docking/5319283d3047ac55/Q9UM73_L1196M/docked/molecule_0011_out.pdbqt
 OpenBabel09232609193D

 72 76  0  0  1  0  0  0  0  0999 V2000
   32.8210   49.8580    5.8410 C   0  0  0  0  0  0  0  0  0  0  0  0
   34.2060   49.8650    5.8730 C   0  0  0  0  0  0  0  0  0  0  0  0
   34.6050   51.0530    5.3860 N   0  0  0  0  0  0  0  0  0  0  0  0
   35.5770   51.3460    5.2880 H   0  0  0  0  0  0  0  0  0  0  0  0
   33.5360   51.7990    5.0460 C   0  0  2  0  0  0  0  0  0  0  0  0
   33.4210   53.0410    4.5240 N   0  0  0  0  0  0  0  0  0  0  0  0
   34.2620   53.5800    4.3190 H   0  0  0  0  0  0  0  0  0  0  0  0
   32.2160   53.5740    4.2700 C   0  0  0  0  0  0  0  0  0  0  0  0
   31.1050   52.8090    4.5630 C   0  0  0  0  0  0  0  0  0  0  0  0
   31.2460   51.5750    5.0820 N   0  0  0  0  0  0  0  0  0  0  0  0
   30.4120   51.0260    5.2910 H   0  0  0  0  0  0  0  0  0  0  0  0
   32.4540   51.0520    5.3320 N   0  0  0  0  0  0  0  0  0  0  0  0
   35.1110   48.8200    6.3340 C   0  0  0  0  0  0  0  0  0  0  0  0
   35.6390   48.7880    7.6100 C   0  0  0  0  0  0  0  0  0  0  0  0
   36.5020   47.7540    7.9850 C   0  0  0  0  0  0  0  0  0  0  0  0
   36.8260   46.7580    7.0680 C   0  0  0  0  0  0  0  0  0  0  0  0
   36.3050   46.7840    5.8000 C   0  0  0  0  0  0  0  0  0  0  0  0
   35.4560   47.8160    5.4530 C   0  0  0  0  0  0  0  0  0  0  0  0
   37.7380   45.6330    7.4110 C   0  0  0  0  0  0  0  0  0  0  0  0
   37.0370   44.7100    8.2640 N   0  0  0  0  0  0  0  0  0  0  0  0
   36.5630   45.3230    9.4860 C   0  0  0  0  0  0  0  0  0  0  0  0
   35.1920   44.7420    9.7590 C   0  0  0  0  0  0  0  0  0  0  0  0
   34.6960   44.2540    8.4150 C   0  0  1  0  0  0  0  0  0  0  0  0
   33.7240   45.2420    7.7910 C   0  0  0  0  0  0  0  0  0  0  0  0
   35.9280   44.1140    7.5870 C   0  0  0  0  0  0  0  0  0  0  0  0
   31.9760   48.7540    6.2820 C   0  0  0  0  0  0  0  0  0  0  0  0
   31.3590   48.7750    7.5160 C   0  0  0  0  0  0  0  0  0  0  0  0
   30.5520   47.7520    7.9730 C   0  0  0  0  0  0  0  0  0  0  0  0
   30.3410   46.6390    7.1640 C   0  0  0  0  0  0  0  0  0  0  0  0
   30.9390   46.5960    5.9410 C   0  0  0  0  0  0  0  0  0  0  0  0
   31.7480   47.6350    5.5000 C   0  0  0  0  0  0  0  0  0  0  0  0
   29.4620   45.5810    7.7170 C   0  0  0  0  0  0  0  0  0  0  0  0
   29.9980   45.0360    8.9560 N   0  0  0  0  0  0  0  0  0  0  0  0
   30.4040   43.6540    8.6560 C   0  0  0  0  0  0  0  0  0  0  0  0
   31.3440   43.1260    9.7170 C   0  0  0  0  0  0  0  0  0  0  0  0
   28.8240   44.8900    9.8330 C   0  0  0  0  0  0  0  0  0  0  0  0
   27.5620   45.3490    9.0940 C   0  0  0  0  0  0  0  0  0  0  0  0
   33.9866   52.6956    4.6745 H   0  0  0  0  0  0  0  0  0  0  0  0
   32.1233   54.5209    3.8703 H   0  0  0  0  0  0  0  0  0  0  0  0
   30.1610   53.1852    4.3832 H   0  0  0  0  0  0  0  0  0  0  0  0
   35.3962   49.5280    8.2871 H   0  0  0  0  0  0  0  0  0  0  0  0
   36.8973   47.7292    8.9380 H   0  0  0  0  0  0  0  0  0  0  0  0
   36.5428   46.0466    5.1183 H   0  0  0  0  0  0  0  0  0  0  0  0
   35.0646   47.8371    4.4983 H   0  0  0  0  0  0  0  0  0  0  0  0
   38.5991   46.0111    7.9214 H   0  0  0  0  0  0  0  0  0  0  0  0
   38.0522   45.1349    6.5176 H   0  0  0  0  0  0  0  0  0  0  0  0
   36.4967   46.3841    9.3650 H   0  0  0  0  0  0  0  0  0  0  0  0
   37.2320   45.1304   10.2985 H   0  0  0  0  0  0  0  0  0  0  0  0
   35.2595   43.9296   10.4521 H   0  0  0  0  0  0  0  0  0  0  0  0
   34.5305   45.4623   10.1931 H   0  0  0  0  0  0  0  0  0  0  0  0
   34.1568   43.3334    8.4966 H   0  0  0  0  0  0  0  0  0  0  0  0
   34.2033   46.1922    7.6801 H   0  0  0  0  0  0  0  0  0  0  0  0
   32.8668   45.3465    8.4228 H   0  0  0  0  0  0  0  0  0  0  0  0
   33.4176   44.8828    6.8308 H   0  0  0  0  0  0  0  0  0  0  0  0
   36.1288   43.0761    7.4218 H   0  0  0  0  0  0  0  0  0  0  0  0
   35.7808   44.6067    6.6487 H   0  0  0  0  0  0  0  0  0  0  0  0
   31.5077   49.5939    8.1262 H   0  0  0  0  0  0  0  0  0  0  0  0
   30.1103   47.8119    8.9038 H   0  0  0  0  0  0  0  0  0  0  0  0
   30.7883   45.7770    5.3314 H   0  0  0  0  0  0  0  0  0  0  0  0
   32.1888   47.5714    4.5690 H   0  0  0  0  0  0  0  0  0  0  0  0
   29.3738   44.7921    6.9996 H   0  0  0  0  0  0  0  0  0  0  0  0
   28.5062   46.0140    7.9264 H   0  0  0  0  0  0  0  0  0  0  0  0
   30.8985   43.6321    7.7074 H   0  0  0  0  0  0  0  0  0  0  0  0
   29.5298   43.0373    8.6357 H   0  0  0  0  0  0  0  0  0  0  0  0
   32.2239   43.7340    9.7485 H   0  0  0  0  0  0  0  0  0  0  0  0
   31.6154   42.1177    9.4833 H   0  0  0  0  0  0  0  0  0  0  0  0
   30.8576   43.1528   10.6697 H   0  0  0  0  0  0  0  0  0  0  0  0
   28.9593   45.4882   10.7098 H   0  0  0  0  0  0  0  0  0  0  0  0
   28.7163   43.8621   10.1101 H   0  0  0  0  0  0  0  0  0  0  0  0
   27.6659   46.3768    8.8151 H   0  0  0  0  0  0  0  0  0  0  0  0
   26.7127   45.2376    9.7353 H   0  0  0  0  0  0  0  0  0  0  0  0
   27.4264   44.7531    8.2157 H   0  0  0  0  0  0  0  0  0  0  0  0
  1  2  2  0  0  0  0
  1 26  1  0  0  0  0
  2 13  1  0  0  0  0
  3  2  1  0  0  0  0
  4  3  1  0  0  0  0
  5 12  1  0  0  0  0
  5  3  1  0  0  0  0
  5 38  1  6  0  0  0
  6  5  1  0  0  0  0
  7  6  1  0  0  0  0
  8  6  1  0  0  0  0
  8  9  2  0  0  0  0
  8 39  1  0  0  0  0
  9 10  1  0  0  0  0
  9 40  1  0  0  0  0
 10 11  1  0  0  0  0
 10 12  1  0  0  0  0
 12  1  1  0  0  0  0
 13 14  2  0  0  0  0
 14 15  1  0  0  0  0
 14 41  1  0  0  0  0
 15 42  1  0  0  0  0
 16 19  1  0  0  0  0
 16 15  2  0  0  0  0
 17 16  1  0  0  0  0
 17 43  1  0  0  0  0
 18 17  2  0  0  0  0
 18 13  1  0  0  0  0
 18 44  1  0  0  0  0
 19 20  1  0  0  0  0
 19 45  1  0  0  0  0
 19 46  1  0  0  0  0
 20 21  1  0  0  0  0
 21 22  1  0  0  0  0
 21 47  1  0  0  0  0
 21 48  1  0  0  0  0
 22 49  1  0  0  0  0
 22 50  1  0  0  0  0
 23 22  1  0  0  0  0
 23 51  1  1  0  0  0
 24 23  1  0  0  0  0
 24 52  1  0  0  0  0
 24 53  1  0  0  0  0
 24 54  1  0  0  0  0
 25 20  1  0  0  0  0
 25 23  1  0  0  0  0
 25 55  1  0  0  0  0
 25 56  1  0  0  0  0
 26 27  2  0  0  0  0
 27 28  1  0  0  0  0
 27 57  1  0  0  0  0
 28 58  1  0  0  0  0
 29 32  1  0  0  0  0
 29 28  2  0  0  0  0
 30 29  1  0  0  0  0
 30 59  1  0  0  0  0
 31 30  2  0  0  0  0
 31 26  1  0  0  0  0
 31 60  1  0  0  0  0
 32 33  1  0  0  0  0
 32 61  1  0  0  0  0
 32 62  1  0  0  0  0
 33 36  1  0  0  0  0
 34 33  1  0  0  0  0
 34 35  1  0  0  0  0
 34 63  1  0  0  0  0
 34 64  1  0  0  0  0
 35 65  1  0  0  0  0
 35 66  1  0  0  0  0
 35 67  1  0  0  0  0
 36 68  1  0  0  0  0
 36 69  1  0  0  0  0
 37 36  1  0  0  0  0
 37 70  1  0  0  0  0
 37 71  1  0  0  0  0
 37 72  1  0  0  0  0
M  END
>  <REMARK>
 VINA RESULT:      -7.2      3.323      9.230
  8 active torsions:
  status: ('A' for Active; 'I' for Inactive)
    1  A    between atoms: C_2  and  N_3 
    2  A    between atoms: N_3  and  C_4 
    3  A    between atoms: N_3  and  C_6 
    4  A    between atoms: C_6  and  C_7 
    5  A    between atoms: C_10  and  C_11 
    6  A    between atoms: C_12  and  C_13 
    7  A    between atoms: C_16  and  C_17 
    8  A    between atoms: C_17  and  N_18 

>  <TORSDO>
F 8

$$$$
resistance_project/docking/5319283d3047ac55/Q9UM73_L1196M/docked/molecule_0011_out.pdbqt
 OpenBabel09232609193D

 72 76  0  0  1  0  0  0  0  0999 V2000
   29.5620   46.3860    7.9660 C   0  0  0  0  0  0  0  0  0  0  0  0
   28.3080   46.9750    8.0110 C   0  0  0  0  0  0  0  0  0  0  0  0
   27.5630   46.2500    8.8640 N   0  0  0  0  0  0  0  0  0  0  0  0
   26.5910   46.4460    9.1000 H   0  0  0  0  0  0  0  0  0  0  0  0
   28.2870   45.2280    9.3610 C   0  0  2  0  0  0  0  0  0  0  0  0
   27.9890   44.2420   10.2370 N   0  0  0  0  0  0  0  0  0  0  0  0
   27.0550   44.1960   10.6430 H   0  0  0  0  0  0  0  0  0  0  0  0
   28.9050   43.3230   10.5790 C   0  0  0  0  0  0  0  0  0  0  0  0
   30.1560   43.4240   10.0050 C   0  0  0  0  0  0  0  0  0  0  0  0
   30.4280   44.4150    9.1350 N   0  0  0  0  0  0  0  0  0  0  0  0
   31.3590   44.4720    8.7220 H   0  0  0  0  0  0  0  0  0  0  0  0
   29.5060   45.3280    8.8000 N   0  0  0  0  0  0  0  0  0  0  0  0
   27.8290   48.1530    7.2990 C   0  0  0  0  0  0  0  0  0  0  0  0
   26.6580   48.8080    7.6250 C   0  0  0  0  0  0  0  0  0  0  0  0
   26.2600   49.9340    6.8980 C   0  0  0  0  0  0  0  0  0  0  0  0
   27.0480   50.3910    5.8460 C   0  0  0  0  0  0  0  0  0  0  0  0
   28.2110   49.7450    5.5160 C   0  0  0  0  0  0  0  0  0  0  0  0
   28.5830   48.6350    6.2490 C   0  0  0  0  0  0  0  0  0  0  0  0
   26.6740   51.5830    5.0370 C   0  0  0  0  0  0  0  0  0  0  0  0
   27.1540   52.7650    5.7040 N   0  0  0  0  0  0  0  0  0  0  0  0
   27.1760   52.6280    7.1440 C   0  0  0  0  0  0  0  0  0  0  0  0
   28.4400   53.3080    7.6250 C   0  0  0  0  0  0  0  0  0  0  0  0
   29.3650   53.3130    6.4270 C   0  0  1  0  0  0  0  0  0  0  0  0
   30.3950   52.1990    6.5170 C   0  0  0  0  0  0  0  0  0  0  0  0
   28.4630   53.1210    5.2550 C   0  0  0  0  0  0  0  0  0  0  0  0
   30.6820   46.8570    7.1590 C   0  0  0  0  0  0  0  0  0  0  0  0
   31.4830   47.8960    7.5870 C   0  0  0  0  0  0  0  0  0  0  0  0
   32.5540   48.3730    6.8560 C   0  0  0  0  0  0  0  0  0  0  0  0
   32.8520   47.7900    5.6270 C   0  0  0  0  0  0  0  0  0  0  0  0
   32.0750   46.7620    5.1840 C   0  0  0  0  0  0  0  0  0  0  0  0
   31.0030   46.2970    5.9350 C   0  0  0  0  0  0  0  0  0  0  0  0
   34.0140   48.3510    4.8980 C   0  0  0  0  0  0  0  0  0  0  0  0
   35.2630   47.7460    5.3390 N   0  0  0  0  0  0  0  0  0  0  0  0
   36.2410   48.8410    5.4280 C   0  0  0  0  0  0  0  0  0  0  0  0
   36.0910   49.5940    6.7310 C   0  0  0  0  0  0  0  0  0  0  0  0
   35.7130   46.9470    4.1870 C   0  0  0  0  0  0  0  0  0  0  0  0
   35.8150   45.4710    4.5860 C   0  0  0  0  0  0  0  0  0  0  0  0
   27.5896   44.7406   10.0099 H   0  0  0  0  0  0  0  0  0  0  0  0
   28.6822   42.5684   11.2468 H   0  0  0  0  0  0  0  0  0  0  0  0
   30.8872   42.7360   10.2440 H   0  0  0  0  0  0  0  0  0  0  0  0
   26.0762   48.4662    8.4058 H   0  0  0  0  0  0  0  0  0  0  0  0
   25.3850   50.4244    7.1407 H   0  0  0  0  0  0  0  0  0  0  0  0
   28.7968   50.0812    4.7357 H   0  0  0  0  0  0  0  0  0  0  0  0
   29.4584   48.1476    6.0018 H   0  0  0  0  0  0  0  0  0  0  0  0
   27.1181   51.5125    4.0661 H   0  0  0  0  0  0  0  0  0  0  0  0
   25.6104   51.6316    4.9312 H   0  0  0  0  0  0  0  0  0  0  0  0
   27.1872   51.5932    7.4161 H   0  0  0  0  0  0  0  0  0  0  0  0
   26.3080   53.0704    7.5866 H   0  0  0  0  0  0  0  0  0  0  0  0
   28.2310   54.3082    7.9425 H   0  0  0  0  0  0  0  0  0  0  0  0
   28.8726   52.8035    8.4636 H   0  0  0  0  0  0  0  0  0  0  0  0
   29.9292   54.2196    6.3590 H   0  0  0  0  0  0  0  0  0  0  0  0
   29.8949   51.2557    6.5880 H   0  0  0  0  0  0  0  0  0  0  0  0
   31.0043   52.3458    7.3842 H   0  0  0  0  0  0  0  0  0  0  0  0
   31.0109   52.2112    5.6421 H   0  0  0  0  0  0  0  0  0  0  0  0
   28.4108   54.0308    4.6942 H   0  0  0  0  0  0  0  0  0  0  0  0
   28.8493   52.3377    4.6368 H   0  0  0  0  0  0  0  0  0  0  0  0
   31.2722   48.3374    8.4957 H   0  0  0  0  0  0  0  0  0  0  0  0
   33.1265   49.1523    7.2166 H   0  0  0  0  0  0  0  0  0  0  0  0
   32.2866   46.3214    4.2751 H   0  0  0  0  0  0  0  0  0  0  0  0
   30.4334   45.5167    5.5721 H   0  0  0  0  0  0  0  0  0  0  0  0
   33.8893   48.1676    3.8512 H   0  0  0  0  0  0  0  0  0  0  0  0
   34.0606   49.4012    5.0977 H   0  0  0  0  0  0  0  0  0  0  0  0
   36.0855   49.5167    4.6130 H   0  0  0  0  0  0  0  0  0  0  0  0
   37.2256   48.4243    5.3854 H   0  0  0  0  0  0  0  0  0  0  0  0
   35.1097   50.0168    6.7877 H   0  0  0  0  0  0  0  0  0  0  0  0
   36.8196   50.3762    6.7768 H   0  0  0  0  0  0  0  0  0  0  0  0
   36.2375   48.9217    7.5504 H   0  0  0  0  0  0  0  0  0  0  0  0
   35.0103   47.0507    3.3867 H   0  0  0  0  0  0  0  0  0  0  0  0
   36.6743   47.2943    3.8705 H   0  0  0  0  0  0  0  0  0  0  0  0
   34.8552   45.1201    4.9031 H   0  0  0  0  0  0  0  0  0  0  0  0
   36.5159   45.3658    5.3876 H   0  0  0  0  0  0  0  0  0  0  0  0
   36.1451   44.8964    3.7459 H   0  0  0  0  0  0  0  0  0  0  0  0
  1  2  2  0  0  0  0
  1 12  1  0  0  0  0
  2  3  1  0  0  0  0
  3  4  1  0  0  0  0
  3  5  1  0  0  0  0
  5  6  1  0  0  0  0
  5 38  1  6  0  0  0
  6  8  1  0  0  0  0
  6  7  1  0  0  0  0
  8 39  1  0  0  0  0
  9  8  2  0  0  0  0
  9 40  1  0  0  0  0
 10  9  1  0  0  0  0
 11 10  1  0  0  0  0
 12 10  1  0  0  0  0
 12  5  1  0  0  0  0
 13 14  1  0  0  0  0
 13  2  1  0  0  0  0
 14 41  1  0  0  0  0
 15 14  2  0  0  0  0
 15 42  1  0  0  0  0
 16 15  1  0  0  0  0
 17 16  2  0  0  0  0
 17 18  1  0  0  0  0
 17 43  1  0  0  0  0
 18 13  2  0  0  0  0
 18 44  1  0  0  0  0
 19 20  1  0  0  0  0
 19 16  1  0  0  0  0
 19 45  1  0  0  0  0
 19 46  1  0  0  0  0
 20 21  1  0  0  0  0
 21 22  1  0  0  0  0
 21 47  1  0  0  0  0
 21 48  1  0  0  0  0
 22 49  1  0  0  0  0
 22 50  1  0  0  0  0
 23 24  1  0  0  0  0
 23 22  1  0  0  0  0
 23 51  1  6  0  0  0
 24 52  1  0  0  0  0
 24 53  1  0  0  0  0
 24 54  1  0  0  0  0
 25 20  1  0  0  0  0
 25 23  1  0  0  0  0
 25 55  1  0  0  0  0
 25 56  1  0  0  0  0
 26 27  1  0  0  0  0
 26  1  1  0  0  0  0
 27 57  1  0  0  0  0
 28 27  2  0  0  0  0
 28 58  1  0  0  0  0
 29 28  1  0  0  0  0
 30 29  2  0  0  0  0
 30 31  1  0  0  0  0
 30 59  1  0  0  0  0
 31 26  2  0  0  0  0
 31 60  1  0  0  0  0
 32 33  1  0  0  0  0
 32 29  1  0  0  0  0
 32 61  1  0  0  0  0
 32 62  1  0  0  0  0
 33 34  1  0  0  0  0
 34 35  1  0  0  0  0
 34 63  1  0  0  0  0
 34 64  1  0  0  0  0
 35 65  1  0  0  0  0
 35 66  1  0  0  0  0
 35 67  1  0  0  0  0
 36 37  1  0  0  0  0
 36 33  1  0  0  0  0
 36 68  1  0  0  0  0
 36 69  1  0  0  0  0
 37 70  1  0  0  0  0
 37 71  1  0  0  0  0
 37 72  1  0  0  0  0
M  END
>  <REMARK>
 VINA RESULT:      -7.0      1.266      2.290
  8 active torsions:
  status: ('A' for Active; 'I' for Inactive)
    1  A    between atoms: C_2  and  N_3 
    2  A    between atoms: N_3  and  C_4 
    3  A    between atoms: N_3  and  C_6 
    4  A    between atoms: C_6  and  C_7 
    5  A    between atoms: C_10  and  C_11 
    6  A    between atoms: C_12  and  C_13 
    7  A    between atoms: C_16  and  C_17 
    8  A    between atoms: C_17  and  N_18 

>  <TORSDO>
F 8

$$$$
resistance_project/docking/5319283d3047ac55/Q9UM73_L1196M/docked/molecule_0011_out.pdbqt
 OpenBabel09232609193D

 72 76  0  0  1  0  0  0  0  0999 V2000
   31.7410   50.2890    5.7990 C   0  0  0  0  0  0  0  0  0  0  0  0
   30.8420   51.3110    5.5390 C   0  0  0  0  0  0  0  0  0  0  0  0
   31.5560   52.3550    5.0820 N   0  0  0  0  0  0  0  0  0  0  0  0
   31.1620   53.2540    4.8060 H   0  0  0  0  0  0  0  0  0  0  0  0
   32.8660   52.0410    5.0410 C   0  0  2  0  0  0  0  0  0  0  0  0
   33.9580   52.7410    4.6620 N   0  0  0  0  0  0  0  0  0  0  0  0
   33.8510   53.7000    4.3320 H   0  0  0  0  0  0  0  0  0  0  0  0
   35.1820   52.1930    4.7160 C   0  0  0  0  0  0  0  0  0  0  0  0
   35.2800   50.8930    5.1690 C   0  0  0  0  0  0  0  0  0  0  0  0
   34.1770   50.2170    5.5400 N   0  0  0  0  0  0  0  0  0  0  0  0
   34.2700   49.2570    5.8730 H   0  0  0  0  0  0  0  0  0  0  0  0
   32.9590   50.7740    5.4840 N   0  0  0  0  0  0  0  0  0  0  0  0
   29.3950   51.3150    5.7060 C   0  0  0  0  0  0  0  0  0  0  0  0
   28.7540   51.9980    6.7210 C   0  0  0  0  0  0  0  0  0  0  0  0
   27.3590   51.9590    6.8200 C   0  0  0  0  0  0  0  0  0  0  0  0
   26.6220   51.2300    5.8920 C   0  0  0  0  0  0  0  0  0  0  0  0
   27.2520   50.5500    4.8820 C   0  0  0  0  0  0  0  0  0  0  0  0
   28.6300   50.6030    4.8060 C   0  0  0  0  0  0  0  0  0  0  0  0
   25.1370   51.1520    5.9470 C   0  0  0  0  0  0  0  0  0  0  0  0
   24.7410   49.7710    5.8490 N   0  0  0  0  0  0  0  0  0  0  0  0
   24.9370   49.0410    7.0840 C   0  0  0  0  0  0  0  0  0  0  0  0
   23.7470   48.1180    7.2350 C   0  0  0  0  0  0  0  0  0  0  0  0
   22.6540   48.7430    6.3950 C   0  0  1  0  0  0  0  0  0  0  0  0
   21.6680   49.5170    7.2550 C   0  0  0  0  0  0  0  0  0  0  0  0
   23.3730   49.6470    5.4530 C   0  0  0  0  0  0  0  0  0  0  0  0
   31.3870   48.9700    6.3130 C   0  0  0  0  0  0  0  0  0  0  0  0
   31.3660   47.8640    5.4880 C   0  0  0  0  0  0  0  0  0  0  0  0
   31.0370   46.5980    5.9310 C   0  0  0  0  0  0  0  0  0  0  0  0
   30.7080   46.4110    7.2700 C   0  0  0  0  0  0  0  0  0  0  0  0
   30.7220   47.4880    8.1050 C   0  0  0  0  0  0  0  0  0  0  0  0
   31.0550   48.7530    7.6390 C   0  0  0  0  0  0  0  0  0  0  0  0
   30.3670   45.0270    7.6770 C   0  0  0  0  0  0  0  0  0  0  0  0
   30.4800   44.8510    9.1180 N   0  0  0  0  0  0  0  0  0  0  0  0
   31.4480   43.7630    9.3250 C   0  0  0  0  0  0  0  0  0  0  0  0
   31.9950   43.2690    8.0040 C   0  0  0  0  0  0  0  0  0  0  0  0
   29.1880   44.2730    9.5210 C   0  0  0  0  0  0  0  0  0  0  0  0
   28.0890   45.3370    9.4270 C   0  0  0  0  0  0  0  0  0  0  0  0
   33.3124   52.9391    4.6680 H   0  0  0  0  0  0  0  0  0  0  0  0
   36.0191   52.7242    4.4293 H   0  0  0  0  0  0  0  0  0  0  0  0
   36.2041   50.4368    5.2235 H   0  0  0  0  0  0  0  0  0  0  0  0
   29.3046   52.5376    7.4071 H   0  0  0  0  0  0  0  0  0  0  0  0
   26.8788   52.4687    7.5780 H   0  0  0  0  0  0  0  0  0  0  0  0
   26.7074   50.0092    4.1921 H   0  0  0  0  0  0  0  0  0  0  0  0
   29.1053   50.0903    4.0469 H   0  0  0  0  0  0  0  0  0  0  0  0
   24.7894   51.5610    6.8727 H   0  0  0  0  0  0  0  0  0  0  0  0
   24.7134   51.7100    5.1382 H   0  0  0  0  0  0  0  0  0  0  0  0
   24.9851   49.7194    7.9101 H   0  0  0  0  0  0  0  0  0  0  0  0
   25.8533   48.4888    7.0643 H   0  0  0  0  0  0  0  0  0  0  0  0
   23.9834   47.1384    6.8753 H   0  0  0  0  0  0  0  0  0  0  0  0
   23.4528   48.0073    8.2578 H   0  0  0  0  0  0  0  0  0  0  0  0
   22.0712   48.0063    5.8827 H   0  0  0  0  0  0  0  0  0  0  0  0
   22.1892   50.2766    7.7993 H   0  0  0  0  0  0  0  0  0  0  0  0
   21.1926   48.8485    7.9420 H   0  0  0  0  0  0  0  0  0  0  0  0
   20.9283   49.9707    6.6290 H   0  0  0  0  0  0  0  0  0  0  0  0
   23.3249   49.2405    4.4644 H   0  0  0  0  0  0  0  0  0  0  0  0
   22.9119   50.6124    5.4690 H   0  0  0  0  0  0  0  0  0  0  0  0
   31.6077   47.9889    4.4925 H   0  0  0  0  0  0  0  0  0  0  0  0
   31.0352   45.8000    5.2766 H   0  0  0  0  0  0  0  0  0  0  0  0
   30.4810   47.3613    9.1004 H   0  0  0  0  0  0  0  0  0  0  0  0
   31.0549   49.5489    8.2959 H   0  0  0  0  0  0  0  0  0  0  0  0
   31.0346   44.3471    7.1903 H   0  0  0  0  0  0  0  0  0  0  0  0
   29.3533   44.8341    7.3938 H   0  0  0  0  0  0  0  0  0  0  0  0
   32.2565   44.1230    9.9264 H   0  0  0  0  0  0  0  0  0  0  0  0
   30.9510   42.9515    9.8143 H   0  0  0  0  0  0  0  0  0  0  0  0
   32.4954   44.0711    7.5029 H   0  0  0  0  0  0  0  0  0  0  0  0
   31.1899   42.9148    7.3947 H   0  0  0  0  0  0  0  0  0  0  0  0
   32.6865   42.4717    8.1801 H   0  0  0  0  0  0  0  0  0  0  0  0
   29.2558   43.9209   10.5291 H   0  0  0  0  0  0  0  0  0  0  0  0
   28.9473   43.4592    8.8693 H   0  0  0  0  0  0  0  0  0  0  0  0
   28.3259   46.1529   10.0775 H   0  0  0  0  0  0  0  0  0  0  0  0
   27.1525   44.9091    9.7181 H   0  0  0  0  0  0  0  0  0  0  0  0
   28.0213   45.6919    8.4198 H   0  0  0  0  0  0  0  0  0  0  0  0
  1 26  1  0  0  0  0
  2 13  1  0  0  0  0
  2  1  2  0  0  0  0
  3  2  1  0  0  0  0
  4  3  1  0  0  0  0
  5  3  1  0  0  0  0
  5 12  1  0  0  0  0
  5 38  1  1  0  0  0
  6  8  1  0  0  0  0
  6  5  1  0  0  0  0
  7  6  1  0  0  0  0
  8  9  2  0  0  0  0
  8 39  1  0  0  0  0
  9 10  1  0  0  0  0
  9 40  1  0  0  0  0
 10 11  1  0  0  0  0
 12 10  1  0  0  0  0
 12  1  1  0  0  0  0
 13 14  2  0  0  0  0
 14 15  1  0  0  0  0
 14 41  1  0  0  0  0
 15 42  1  0  0  0  0
 16 19  1  0  0  0  0
 16 15  2  0  0  0  0
 17 16  1  0  0  0  0
 17 43  1  0  0  0  0
 18 17  2  0  0  0  0
 18 13  1  0  0  0  0
 18 44  1  0  0  0  0
 19 45  1  0  0  0  0
 19 46  1  0  0  0  0
 20 19  1  0  0  0  0
 20 21  1  0  0  0  0
 21 22  1  0  0  0  0
 21 47  1  0  0  0  0
 21 48  1  0  0  0  0
 22 49  1  0  0  0  0
 22 50  1  0  0  0  0
 23 22  1  0  0  0  0
 23 24  1  0  0  0  0
 23 51  1  6  0  0  0
 24 52  1  0  0  0  0
 24 53  1  0  0  0  0
 24 54  1  0  0  0  0
 25 20  1  0  0  0  0
 25 23  1  0  0  0  0
 25 55  1  0  0  0  0
 25 56  1  0  0  0  0
 26 31  2  0  0  0  0
 27 28  2  0  0  0  0
 27 26  1  0  0  0  0
 27 57  1  0  0  0  0
 28 29  1  0  0  0  0
 28 58  1  0  0  0  0
 29 32  1  0  0  0  0
 29 30  2  0  0  0  0
 30 59  1  0  0  0  0
 31 30  1  0  0  0  0
 31 60  1  0  0  0  0
 32 33  1  0  0  0  0
 32 61  1  0  0  0  0
 32 62  1  0  0  0  0
 33 34  1  0  0  0  0
 33 36  1  0  0  0  0
 34 63  1  0  0  0  0
 34 64  1  0  0  0  0
 35 34  1  0  0  0  0
 35 65  1  0  0  0  0
 35 66  1  0  0  0  0
 35 67  1  0  0  0  0
 36 68  1  0  0  0  0
 36 69  1  0  0  0  0
 37 36  1  0  0  0  0
 37 70  1  0  0  0  0
 37 71  1  0  0  0  0
 37 72  1  0  0  0  0
M  END
>  <REMARK>
 VINA RESULT:      -6.8      2.858      6.362
  8 active torsions:
  status: ('A' for Active; 'I' for Inactive)
    1  A    between atoms: C_2  and  N_3 
    2  A    between atoms: N_3  and  C_4 
    3  A    between atoms: N_3  and  C_6 
    4  A    between atoms: C_6  and  C_7 
    5  A    between atoms: C_10  and  C_11 
    6  A    between atoms: C_12  and  C_13 
    7  A    between atoms: C_16  and  C_17 
    8  A    between atoms: C_17  and  N_18 

>  <TORSDO>
F 8

$$$$
