resistance_project/docking/5319283d3047ac55/Q9UM73_L1196M/docked/molecule_0009_out.pdbqt
 OpenBabel09232609193D

 74 78  0  0  1  0  0  0  0  0999 V2000
   34.3430   46.3980    7.4510 C   0  0  0  0  0  0  0  0  0  0  0  0
   33.4480   46.7860    6.6100 N   0  0  0  0  0  0  0  0  0  0  0  0
   33.7530   46.9750    5.6550 H   0  0  0  0  0  0  0  0  0  0  0  0
   33.8400   45.9130    8.7720 C   0  0  2  0  0  0  0  0  0  0  0  0
   34.6100   46.5130    9.9000 C   0  0  0  0  0  0  0  0  0  0  0  0
   35.2690   45.4560   10.6050 N   0  0  0  0  0  0  0  0  0  0  0  0
   34.6850   47.7350   10.2060 O   0  0  0  0  0  0  0  0  0  0  0  0
   34.9540   44.2160    9.9900 C   0  0  0  0  0  0  0  0  0  0  0  0
   35.8710   45.5750   11.4200 H   0  0  0  0  0  0  0  0  0  0  0  0
   34.1130   44.4410    8.9110 C   0  0  0  0  0  0  0  0  0  0  0  0
   35.3700   42.9450   10.3380 C   0  0  0  0  0  0  0  0  0  0  0  0
   33.7200   43.3160    8.2100 C   0  0  0  0  0  0  0  0  0  0  0  0
   34.1320   42.0410    8.5520 C   0  0  0  0  0  0  0  0  0  0  0  0
   34.9690   41.8320    9.6290 C   0  0  0  0  0  0  0  0  0  0  0  0
   35.3860   40.4820    9.9640 C   0  0  0  0  0  0  0  0  0  0  0  0
   36.5180   40.0840    9.6230 O   0  0  0  0  0  0  0  0  0  0  0  0
   34.4670   39.6940   10.6650 O   0  0  0  0  0  0  0  0  0  0  0  0
   34.9360   38.9290   11.7760 C   0  0  0  0  0  0  0  0  0  0  0  0
   35.7750   46.4190    7.1830 C   0  0  0  0  0  0  0  0  0  0  0  0
   36.5160   47.5670    7.3870 C   0  0  0  0  0  0  0  0  0  0  0  0
   37.8610   47.5710    7.1260 C   0  0  0  0  0  0  0  0  0  0  0  0
   38.4880   46.4500    6.6640 C   0  0  0  0  0  0  0  0  0  0  0  0
   37.7440   45.3200    6.4650 C   0  0  0  0  0  0  0  0  0  0  0  0
   36.3900   45.2780    6.7160 C   0  0  0  0  0  0  0  0  0  0  0  0
   32.0840   46.9720    6.9020 C   0  0  0  0  0  0  0  0  0  0  0  0
   31.6390   48.0300    7.6970 C   0  0  0  0  0  0  0  0  0  0  0  0
   30.2990   48.1620    7.9390 C   0  0  0  0  0  0  0  0  0  0  0  0
   29.3590   47.2780    7.4240 C   0  0  0  0  0  0  0  0  0  0  0  0
   29.8500   46.2530    6.6490 C   0  0  0  0  0  0  0  0  0  0  0  0
   31.1890   46.0610    6.3640 C   0  0  0  0  0  0  0  0  0  0  0  0
   27.9530   47.4470    7.6770 N   0  0  0  0  0  0  0  0  0  0  0  0
   27.3360   46.4740    8.5500 C   0  0  0  0  0  0  0  0  0  0  0  0
   27.2760   48.5240    7.0640 C   0  0  0  0  0  0  0  0  0  0  0  0
   26.0700   48.7140    7.4550 O   0  0  0  0  0  0  0  0  0  0  0  0
   27.7980   49.4270    6.0520 C   0  0  0  0  0  0  0  0  0  0  0  0
   28.1250   50.7410    6.4360 N   0  0  0  0  0  0  0  0  0  0  0  0
   29.4330   51.2210    6.1130 C   0  0  0  0  0  0  0  0  0  0  0  0
   29.2730   52.6850    5.6950 C   0  0  0  0  0  0  0  0  0  0  0  0
   28.7930   53.4760    6.8260 N   0  0  0  0  0  0  0  0  0  0  0  0
   29.7770   53.5020    7.8930 C   0  0  0  0  0  0  0  0  0  0  0  0
   27.5680   52.8840    7.3420 C   0  0  0  0  0  0  0  0  0  0  0  0
   27.1140   51.7260    6.4630 C   0  0  0  0  0  0  0  0  0  0  0  0
   32.8010   46.1664    8.8075 H   0  0  0  0  0  0  0  0  0  0  0  0
   35.9967   42.8256   11.1491 H   0  0  0  0  0  0  0  0  0  0  0  0
   33.0935   43.4325    7.3982 H   0  0  0  0  0  0  0  0  0  0  0  0
   33.8091   41.2350    7.9943 H   0  0  0  0  0  0  0  0  0  0  0  0
   34.1204   38.3842   12.2036 H   0  0  0  0  0  0  0  0  0  0  0  0
   35.3508   39.5859   12.5117 H   0  0  0  0  0  0  0  0  0  0  0  0
   35.6882   38.2437   11.4451 H   0  0  0  0  0  0  0  0  0  0  0  0
   36.0560   48.4223    7.7363 H   0  0  0  0  0  0  0  0  0  0  0  0
   38.4072   48.4328    7.2807 H   0  0  0  0  0  0  0  0  0  0  0  0
   39.5014   46.4551    6.4691 H   0  0  0  0  0  0  0  0  0  0  0  0
   38.2127   44.4698    6.1149 H   0  0  0  0  0  0  0  0  0  0  0  0
   35.8497   44.4131    6.5581 H   0  0  0  0  0  0  0  0  0  0  0  0
   32.3116   48.7031    8.0965 H   0  0  0  0  0  0  0  0  0  0  0  0
   29.9746   48.9468    8.5254 H   0  0  0  0  0  0  0  0  0  0  0  0
   29.1729   45.5820    6.2536 H   0  0  0  0  0  0  0  0  0  0  0  0
   31.5078   45.2745    5.7769 H   0  0  0  0  0  0  0  0  0  0  0  0
   26.2967   46.7030    8.6613 H   0  0  0  0  0  0  0  0  0  0  0  0
   27.8119   46.5018    9.5079 H   0  0  0  0  0  0  0  0  0  0  0  0
   27.4426   45.4970    8.1270 H   0  0  0  0  0  0  0  0  0  0  0  0
   28.6874   48.9813    5.6579 H   0  0  0  0  0  0  0  0  0  0  0  0
   26.9891   49.5467    5.3619 H   0  0  0  0  0  0  0  0  0  0  0  0
   30.0736   51.1492    6.9670 H   0  0  0  0  0  0  0  0  0  0  0  0
   29.8726   50.6422    5.3277 H   0  0  0  0  0  0  0  0  0  0  0  0
   28.5683   52.7497    4.8924 H   0  0  0  0  0  0  0  0  0  0  0  0
   30.2208   53.0657    5.3761 H   0  0  0  0  0  0  0  0  0  0  0  0
   30.6855   53.9351    7.5298 H   0  0  0  0  0  0  0  0  0  0  0  0
   29.9667   52.5035    8.2276 H   0  0  0  0  0  0  0  0  0  0  0  0
   29.4040   54.0865    8.7080 H   0  0  0  0  0  0  0  0  0  0  0  0
   27.7436   52.5234    8.3340 H   0  0  0  0  0  0  0  0  0  0  0  0
   26.8021   53.6311    7.3470 H   0  0  0  0  0  0  0  0  0  0  0  0
   26.2146   51.3051    6.8615 H   0  0  0  0  0  0  0  0  0  0  0  0
   26.9287   52.0789    5.4700 H   0  0  0  0  0  0  0  0  0  0  0  0
  1  4  1  0  0  0  0
  2 25  1  0  0  0  0
  2  1  2  0  0  0  0
  3  2  1  0  0  0  0
  4 10  1  0  0  0  0
  4  5  1  0  0  0  0
  4 43  1  1  0  0  0
  5  7  2  0  0  0  0
  5  6  1  0  0  0  0
  6  9  1  0  0  0  0
  8 11  1  0  0  0  0
  8  6  1  0  0  0  0
 10  8  2  0  0  0  0
 11 44  1  0  0  0  0
 12 13  2  0  0  0  0
 12 10  1  0  0  0  0
 12 45  1  0  0  0  0
 13 14  1  0  0  0  0
 13 46  1  0  0  0  0
 14 15  1  0  0  0  0
 14 11  2  0  0  0  0
 15 17  1  0  0  0  0
 16 15  2  0  0  0  0
 17 18  1  0  0  0  0
 18 47  1  0  0  0  0
 18 48  1  0  0  0  0
 18 49  1  0  0  0  0
 19 20  1  0  0  0  0
 19  1  1  0  0  0  0
 20 50  1  0  0  0  0
 21 20  2  0  0  0  0
 21 51  1  0  0  0  0
 22 21  1  0  0  0  0
 22 52  1  0  0  0  0
 23 22  2  0  0  0  0
 23 24  1  0  0  0  0
 23 53  1  0  0  0  0
 24 19  2  0  0  0  0
 24 54  1  0  0  0  0
 25 26  2  0  0  0  0
 26 27  1  0  0  0  0
 26 55  1  0  0  0  0
 27 56  1  0  0  0  0
 28 31  1  0  0  0  0
 28 27  2  0  0  0  0
 29 28  1  0  0  0  0
 29 57  1  0  0  0  0
 30 29  2  0  0  0  0
 30 25  1  0  0  0  0
 30 58  1  0  0  0  0
 31 32  1  0  0  0  0
 32 59  1  0  0  0  0
 32 60  1  0  0  0  0
 32 61  1  0  0  0  0
 33 34  2  0  0  0  0
 33 31  1  0  0  0  0
 35 36  1  0  0  0  0
 35 33  1  0  0  0  0
 35 62  1  0  0  0  0
 35 63  1  0  0  0  0
 36 42  1  0  0  0  0
 37 36  1  0  0  0  0
 37 64  1  0  0  0  0
 37 65  1  0  0  0  0
 38 37  1  0  0  0  0
 38 39  1  0  0  0  0
 38 66  1  0  0  0  0
 38 67  1  0  0  0  0
 39 41  1  0  0  0  0
 39 40  1  0  0  0  0
 40 68  1  0  0  0  0
 40 69  1  0  0  0  0
 40 70  1  0  0  0  0
 41 71  1  0  0  0  0
 41 72  1  0  0  0  0
 42 41  1  0  0  0  0
 42 73  1  0  0  0  0
 42 74  1  0  0  0  0
M  END
>  <MODEL>
1

>  <REMARK>
 VINA RESULT:      -7.1      0.000      0.000
  8 active torsions:
  status: ('A' for Active; 'I' for Inactive)
    1  A    between atoms: O_2  and  C_3 
    2  A    between atoms: C_3  and  C_5 
    3  A    between atoms: C_15  and  C_16 
    4  A    between atoms: C_16  and  C_37 
    5  A    between atoms: N_17  and  C_19 
    6  A    between atoms: C_22  and  N_23 
       I    between atoms: N_23  and  C_25 
    7  A    between atoms: C_25  and  C_27 
    8  A    between atoms: C_27  and  N_28 

>  <TORSDO>
F 8

$$$$
resistance_project/docking/5319283d3047ac55/Q9UM73_L1196M/docked/molecule_0009_out.pdbqt
 OpenBabel09232609193D

 74 78  0  0  1  0  0  0  0  0999 V2000
   36.2540   44.3670    7.3910 C   0  0  0  0  0  0  0  0  0  0  0  0
   35.5470   43.7800    8.2950 N   0  0  0  0  0  0  0  0  0  0  0  0
   36.0400   43.1850    8.9610 H   0  0  0  0  0  0  0  0  0  0  0  0
   35.5500   45.4020    6.5750 C   0  0  2  0  0  0  0  0  0  0  0  0
   35.8020   45.2080    5.1170 C   0  0  0  0  0  0  0  0  0  0  0  0
   36.4920   46.3620    4.6240 N   0  0  0  0  0  0  0  0  0  0  0  0
   35.4750   44.2140    4.4140 O   0  0  0  0  0  0  0  0  0  0  0  0
   36.6850   47.2810    5.6890 C   0  0  0  0  0  0  0  0  0  0  0  0
   36.7960   46.5010    3.6610 H   0  0  0  0  0  0  0  0  0  0  0  0
   36.1430   46.7560    6.8520 C   0  0  0  0  0  0  0  0  0  0  0  0
   37.3010   48.5180    5.6650 C   0  0  0  0  0  0  0  0  0  0  0  0
   36.2580   47.5470    7.9790 C   0  0  0  0  0  0  0  0  0  0  0  0
   36.8730   48.7850    7.9640 C   0  0  0  0  0  0  0  0  0  0  0  0
   37.4080   49.2960    6.7990 C   0  0  0  0  0  0  0  0  0  0  0  0
   38.0490   50.5990    6.8130 C   0  0  0  0  0  0  0  0  0  0  0  0
   38.8900   50.8810    5.9350 O   0  0  0  0  0  0  0  0  0  0  0  0
   37.6750   51.4750    7.8360 O   0  0  0  0  0  0  0  0  0  0  0  0
   37.7100   52.8790    7.5760 C   0  0  0  0  0  0  0  0  0  0  0  0
   37.6560   44.0680    7.1340 C   0  0  0  0  0  0  0  0  0  0  0  0
   38.6540   44.9060    7.5950 C   0  0  0  0  0  0  0  0  0  0  0  0
   39.9680   44.6130    7.3400 C   0  0  0  0  0  0  0  0  0  0  0  0
   40.3120   43.4970    6.6330 C   0  0  0  0  0  0  0  0  0  0  0  0
   39.3150   42.6760    6.1810 C   0  0  0  0  0  0  0  0  0  0  0  0
   37.9840   42.9390    6.4170 C   0  0  0  0  0  0  0  0  0  0  0  0
   34.1510   43.8930    8.4370 C   0  0  0  0  0  0  0  0  0  0  0  0
   33.2730   43.0140    7.7970 C   0  0  0  0  0  0  0  0  0  0  0  0
   31.9270   43.1710    7.9810 C   0  0  0  0  0  0  0  0  0  0  0  0
   31.3950   44.1750    8.7790 C   0  0  0  0  0  0  0  0  0  0  0  0
   32.3030   45.0130    9.3850 C   0  0  0  0  0  0  0  0  0  0  0  0
   33.6740   44.9120    9.2450 C   0  0  0  0  0  0  0  0  0  0  0  0
   29.9770   44.3080    8.9720 N   0  0  0  0  0  0  0  0  0  0  0  0
   29.4070   43.5680   10.0760 C   0  0  0  0  0  0  0  0  0  0  0  0
   29.2430   45.1290    8.0890 C   0  0  0  0  0  0  0  0  0  0  0  0
   28.0190   45.3340    8.4100 O   0  0  0  0  0  0  0  0  0  0  0  0
   29.7260   45.7580    6.8700 C   0  0  0  0  0  0  0  0  0  0  0  0
   30.5330   46.9050    6.9870 N   0  0  0  0  0  0  0  0  0  0  0  0
   30.9420   47.5560    5.7800 C   0  0  0  0  0  0  0  0  0  0  0  0
   30.8820   49.0610    6.0520 C   0  0  0  0  0  0  0  0  0  0  0  0
   31.8540   49.4200    7.0830 N   0  0  0  0  0  0  0  0  0  0  0  0
   33.2090   49.1810    6.6210 C   0  0  0  0  0  0  0  0  0  0  0  0
   31.6200   48.6090    8.2670 C   0  0  0  0  0  0  0  0  0  0  0  0
   30.3690   47.7560    8.1020 C   0  0  0  0  0  0  0  0  0  0  0  0
   34.5120   45.3241    6.8226 H   0  0  0  0  0  0  0  0  0  0  0  0
   37.6908   48.8685    4.7761 H   0  0  0  0  0  0  0  0  0  0  0  0
   35.8685   47.1991    8.8691 H   0  0  0  0  0  0  0  0  0  0  0  0
   36.9328   49.3344    8.8356 H   0  0  0  0  0  0  0  0  0  0  0  0
   37.3984   53.4115    8.4502 H   0  0  0  0  0  0  0  0  0  0  0  0
   37.0508   53.1081    6.7649 H   0  0  0  0  0  0  0  0  0  0  0  0
   38.7071   53.1692    7.3181 H   0  0  0  0  0  0  0  0  0  0  0  0
   38.4093   45.7529    8.1316 H   0  0  0  0  0  0  0  0  0  0  0  0
   40.7072   45.2441    7.6869 H   0  0  0  0  0  0  0  0  0  0  0  0
   41.3024   43.2773    6.4436 H   0  0  0  0  0  0  0  0  0  0  0  0
   39.5690   41.8313    5.6452 H   0  0  0  0  0  0  0  0  0  0  0  0
   37.2498   42.3050    6.0649 H   0  0  0  0  0  0  0  0  0  0  0  0
   33.6348   42.2580    7.1948 H   0  0  0  0  0  0  0  0  0  0  0  0
   31.2821   42.5183    7.5087 H   0  0  0  0  0  0  0  0  0  0  0  0
   31.9350   45.7680    9.9846 H   0  0  0  0  0  0  0  0  0  0  0  0
   34.3141   45.5666    9.7212 H   0  0  0  0  0  0  0  0  0  0  0  0
   28.3527   43.7455   10.1178 H   0  0  0  0  0  0  0  0  0  0  0  0
   29.8592   43.8883   10.9913 H   0  0  0  0  0  0  0  0  0  0  0  0
   29.5874   42.5227    9.9357 H   0  0  0  0  0  0  0  0  0  0  0  0
   30.2940   45.0237    6.3379 H   0  0  0  0  0  0  0  0  0  0  0  0
   28.8394   46.1068    6.3830 H   0  0  0  0  0  0  0  0  0  0  0  0
   31.9399   47.2666    5.5245 H   0  0  0  0  0  0  0  0  0  0  0  0
   30.3068   47.2864    4.9622 H   0  0  0  0  0  0  0  0  0  0  0  0
   29.8992   49.3224    6.3847 H   0  0  0  0  0  0  0  0  0  0  0  0
   31.1122   49.5909    5.1514 H   0  0  0  0  0  0  0  0  0  0  0  0
   33.3977   49.7713    5.7487 H   0  0  0  0  0  0  0  0  0  0  0  0
   33.3270   48.1446    6.3827 H   0  0  0  0  0  0  0  0  0  0  0  0
   33.9012   49.4510    7.3910 H   0  0  0  0  0  0  0  0  0  0  0  0
   31.4967   49.2519    9.1134 H   0  0  0  0  0  0  0  0  0  0  0  0
   32.4596   47.9611    8.4094 H   0  0  0  0  0  0  0  0  0  0  0  0
   30.2181   47.1674    8.9827 H   0  0  0  0  0  0  0  0  0  0  0  0
   29.5192   48.3884    7.9506 H   0  0  0  0  0  0  0  0  0  0  0  0
  1  2  2  0  0  0  0
  2 25  1  0  0  0  0
  2  3  1  0  0  0  0
  4 10  1  0  0  0  0
  4  1  1  0  0  0  0
  4 43  1  1  0  0  0
  5  4  1  0  0  0  0
  6  5  1  0  0  0  0
  6  8  1  0  0  0  0
  7  5  2  0  0  0  0
  8 10  1  0  0  0  0
  9  6  1  0  0  0  0
 10 12  2  0  0  0  0
 11  8  2  0  0  0  0
 11 14  1  0  0  0  0
 11 44  1  0  0  0  0
 12 45  1  0  0  0  0
 13 12  1  0  0  0  0
 13 46  1  0  0  0  0
 14 15  1  0  0  0  0
 14 13  2  0  0  0  0
 15 17  1  0  0  0  0
 16 15  2  0  0  0  0
 18 17  1  0  0  0  0
 18 47  1  0  0  0  0
 18 48  1  0  0  0  0
 18 49  1  0  0  0  0
 19  1  1  0  0  0  0
 19 20  2  0  0  0  0
 20 50  1  0  0  0  0
 21 20  1  0  0  0  0
 21 51  1  0  0  0  0
 22 21  2  0  0  0  0
 22 52  1  0  0  0  0
 23 24  2  0  0  0  0
 23 22  1  0  0  0  0
 23 53  1  0  0  0  0
 24 19  1  0  0  0  0
 24 54  1  0  0  0  0
 25 30  2  0  0  0  0
 26 27  2  0  0  0  0
 26 25  1  0  0  0  0
 26 55  1  0  0  0  0
 27 28  1  0  0  0  0
 27 56  1  0  0  0  0
 28 31  1  0  0  0  0
 28 29  2  0  0  0  0
 29 57  1  0  0  0  0
 30 29  1  0  0  0  0
 30 58  1  0  0  0  0
 31 32  1  0  0  0  0
 32 59  1  0  0  0  0
 32 60  1  0  0  0  0
 32 61  1  0  0  0  0
 33 34  2  0  0  0  0
 33 31  1  0  0  0  0
 35 36  1  0  0  0  0
 35 33  1  0  0  0  0
 35 62  1  0  0  0  0
 35 63  1  0  0  0  0
 36 42  1  0  0  0  0
 37 38  1  0  0  0  0
 37 36  1  0  0  0  0
 37 64  1  0  0  0  0
 37 65  1  0  0  0  0
 38 39  1  0  0  0  0
 38 66  1  0  0  0  0
 38 67  1  0  0  0  0
 39 41  1  0  0  0  0
 40 39  1  0  0  0  0
 40 68  1  0  0  0  0
 40 69  1  0  0  0  0
 40 70  1  0  0  0  0
 41 71  1  0  0  0  0
 41 72  1  0  0  0  0
 42 41  1  0  0  0  0
 42 73  1  0  0  0  0
 42 74  1  0  0  0  0
M  END
>  <REMARK>
 VINA RESULT:      -7.1      3.296      6.044
  8 active torsions:
  status: ('A' for Active; 'I' for Inactive)
    1  A    between atoms: O_2  and  C_3 
    2  A    between atoms: C_3  and  C_5 
    3  A    between atoms: C_15  and  C_16 
    4  A    between atoms: C_16  and  C_37 
    5  A    between atoms: N_17  and  C_19 
    6  A    between atoms: C_22  and  N_23 
       I    between atoms: N_23  and  C_25 
    7  A    between atoms: C_25  and  C_27 
    8  A    between atoms: C_27  and  N_28 

>  <TORSDO>
F 8

$$$$
resistance_project/docking/5319283d3047ac55/Q9UM73_L1196M/docked/molecule_0009_out.pdbqt
 OpenBabel09232609193D

 74 78  0  0  1  0  0  0  0  0999 V2000
   28.9950   51.3500    6.3010 C   0  0  0  0  0  0  0  0  0  0  0  0
   30.1330   50.9980    6.7920 N   0  0  0  0  0  0  0  0  0  0  0  0
   30.5220   51.5790    7.5350 H   0  0  0  0  0  0  0  0  0  0  0  0
   28.3440   50.3690    5.3800 C   0  0  2  0  0  0  0  0  0  0  0  0
   27.9050   51.0210    4.1130 C   0  0  0  0  0  0  0  0  0  0  0  0
   26.4800   50.9170    4.0250 N   0  0  0  0  0  0  0  0  0  0  0  0
   28.6380   51.5740    3.2480 O   0  0  0  0  0  0  0  0  0  0  0  0
   25.9910   50.2270    5.1660 C   0  0  0  0  0  0  0  0  0  0  0  0
   25.9070   51.2810    3.2640 H   0  0  0  0  0  0  0  0  0  0  0  0
   27.0550   49.8850    5.9850 C   0  0  0  0  0  0  0  0  0  0  0  0
   24.6870   49.9060    5.4900 C   0  0  0  0  0  0  0  0  0  0  0  0
   26.7270   49.2040    7.1420 C   0  0  0  0  0  0  0  0  0  0  0  0
   25.4250   48.8780    7.4750 C   0  0  0  0  0  0  0  0  0  0  0  0
   24.3760   49.2250    6.6490 C   0  0  0  0  0  0  0  0  0  0  0  0
   23.0180   48.8710    7.0240 C   0  0  0  0  0  0  0  0  0  0  0  0
   22.6570   47.6780    6.9770 O   0  0  0  0  0  0  0  0  0  0  0  0
   22.1810   49.9180    7.4220 O   0  0  0  0  0  0  0  0  0  0  0  0
   20.8980   50.0350    6.8050 C   0  0  0  0  0  0  0  0  0  0  0  0
   28.3440   52.6220    6.5850 C   0  0  0  0  0  0  0  0  0  0  0  0
   27.3300   52.7030    7.5210 C   0  0  0  0  0  0  0  0  0  0  0  0
   26.7250   53.9060    7.7740 C   0  0  0  0  0  0  0  0  0  0  0  0
   27.1110   55.0370    7.1110 C   0  0  0  0  0  0  0  0  0  0  0  0
   28.1150   54.9430    6.1880 C   0  0  0  0  0  0  0  0  0  0  0  0
   28.7450   53.7510    5.9070 C   0  0  0  0  0  0  0  0  0  0  0  0
   30.8840   49.8790    6.3850 C   0  0  0  0  0  0  0  0  0  0  0  0
   30.4960   48.5770    6.7050 C   0  0  0  0  0  0  0  0  0  0  0  0
   31.2640   47.5300    6.2750 C   0  0  0  0  0  0  0  0  0  0  0  0
   32.4220   47.7120    5.5300 C   0  0  0  0  0  0  0  0  0  0  0  0
   32.7600   49.0150    5.2430 C   0  0  0  0  0  0  0  0  0  0  0  0
   32.0310   50.1180    5.6450 C   0  0  0  0  0  0  0  0  0  0  0  0
   33.2030   46.5960    5.0730 N   0  0  0  0  0  0  0  0  0  0  0  0
   33.0030   46.1920    3.6990 C   0  0  0  0  0  0  0  0  0  0  0  0
   34.0920   45.9710    5.9740 C   0  0  0  0  0  0  0  0  0  0  0  0
   34.8730   45.0920    5.4630 O   0  0  0  0  0  0  0  0  0  0  0  0
   34.2130   46.2190    7.4010 C   0  0  0  0  0  0  0  0  0  0  0  0
   33.9030   45.1700    8.2880 N   0  0  0  0  0  0  0  0  0  0  0  0
   34.9210   44.7500    9.2020 C   0  0  0  0  0  0  0  0  0  0  0  0
   34.2210   44.4490   10.5290 C   0  0  0  0  0  0  0  0  0  0  0  0
   33.3030   43.3240   10.3650 N   0  0  0  0  0  0  0  0  0  0  0  0
   34.0280   42.1080   10.0440 C   0  0  0  0  0  0  0  0  0  0  0  0
   32.3810   43.6130    9.2770 C   0  0  0  0  0  0  0  0  0  0  0  0
   32.5790   45.0310    8.7590 C   0  0  0  0  0  0  0  0  0  0  0  0
   29.0626   49.5945    5.2107 H   0  0  0  0  0  0  0  0  0  0  0  0
   23.9267   50.1824    4.8493 H   0  0  0  0  0  0  0  0  0  0  0  0
   27.4856   48.9271    7.7845 H   0  0  0  0  0  0  0  0  0  0  0  0
   25.2357   48.3688    8.3524 H   0  0  0  0  0  0  0  0  0  0  0  0
   20.3815   50.8784    7.2133 H   0  0  0  0  0  0  0  0  0  0  0  0
   20.3313   49.1463    6.9892 H   0  0  0  0  0  0  0  0  0  0  0  0
   21.0202   50.1679    5.7503 H   0  0  0  0  0  0  0  0  0  0  0  0
   27.0286   51.8570    8.0294 H   0  0  0  0  0  0  0  0  0  0  0  0
   25.9684   53.9587    8.4739 H   0  0  0  0  0  0  0  0  0  0  0  0
   26.6544   55.9424    7.3030 H   0  0  0  0  0  0  0  0  0  0  0  0
   28.4109   55.7940    5.6848 H   0  0  0  0  0  0  0  0  0  0  0  0
   29.4999   53.7052    5.2048 H   0  0  0  0  0  0  0  0  0  0  0  0
   29.6417   48.4067    7.2583 H   0  0  0  0  0  0  0  0  0  0  0  0
   30.9722   46.5691    6.5130 H   0  0  0  0  0  0  0  0  0  0  0  0
   33.6158   49.1794    4.6902 H   0  0  0  0  0  0  0  0  0  0  0  0
   32.3275   51.0769    5.4049 H   0  0  0  0  0  0  0  0  0  0  0  0
   32.2773   46.8313    3.2413 H   0  0  0  0  0  0  0  0  0  0  0  0
   32.6550   45.1805    3.6717 H   0  0  0  0  0  0  0  0  0  0  0  0
   33.9287   46.2652    3.1674 H   0  0  0  0  0  0  0  0  0  0  0  0
   33.5638   47.0362    7.6370 H   0  0  0  0  0  0  0  0  0  0  0  0
   35.2579   46.3933    7.5518 H   0  0  0  0  0  0  0  0  0  0  0  0
   35.6428   45.5288    9.3338 H   0  0  0  0  0  0  0  0  0  0  0  0
   35.4376   43.8881    8.8343 H   0  0  0  0  0  0  0  0  0  0  0  0
   33.6718   45.3117   10.8437 H   0  0  0  0  0  0  0  0  0  0  0  0
   34.9559   44.1986   11.2653 H   0  0  0  0  0  0  0  0  0  0  0  0
   33.3360   41.3000    9.9289 H   0  0  0  0  0  0  0  0  0  0  0  0
   34.7124   41.8816   10.8347 H   0  0  0  0  0  0  0  0  0  0  0  0
   34.5699   42.2461    9.1318 H   0  0  0  0  0  0  0  0  0  0  0  0
   32.5531   42.9213    8.4790 H   0  0  0  0  0  0  0  0  0  0  0  0
   31.3800   43.5196    9.6433 H   0  0  0  0  0  0  0  0  0  0  0  0
   31.8928   45.2197    7.9600 H   0  0  0  0  0  0  0  0  0  0  0  0
   32.4017   45.7313    9.5484 H   0  0  0  0  0  0  0  0  0  0  0  0
  1 19  1  0  0  0  0
  1  2  2  0  0  0  0
  2  3  1  0  0  0  0
  4 10  1  0  0  0  0
  4  1  1  0  0  0  0
  4 43  1  6  0  0  0
  5  4  1  0  0  0  0
  6  5  1  0  0  0  0
  6  8  1  0  0  0  0
  7  5  2  0  0  0  0
  8 11  2  0  0  0  0
  8 10  1  0  0  0  0
  9  6  1  0  0  0  0
 10 12  2  0  0  0  0
 11 14  1  0  0  0  0
 11 44  1  0  0  0  0
 12 13  1  0  0  0  0
 12 45  1  0  0  0  0
 13 46  1  0  0  0  0
 14 15  1  0  0  0  0
 14 13  2  0  0  0  0
 15 17  1  0  0  0  0
 16 15  2  0  0  0  0
 18 17  1  0  0  0  0
 18 47  1  0  0  0  0
 18 48  1  0  0  0  0
 18 49  1  0  0  0  0
 19 20  2  0  0  0  0
 20 21  1  0  0  0  0
 20 50  1  0  0  0  0
 21 51  1  0  0  0  0
 22 21  2  0  0  0  0
 22 52  1  0  0  0  0
 23 22  1  0  0  0  0
 23 53  1  0  0  0  0
 24 23  2  0  0  0  0
 24 19  1  0  0  0  0
 24 54  1  0  0  0  0
 25 26  1  0  0  0  0
 25  2  1  0  0  0  0
 26 55  1  0  0  0  0
 27 26  2  0  0  0  0
 27 56  1  0  0  0  0
 28 27  1  0  0  0  0
 29 28  2  0  0  0  0
 29 30  1  0  0  0  0
 29 57  1  0  0  0  0
 30 25  2  0  0  0  0
 30 58  1  0  0  0  0
 31 28  1  0  0  0  0
 31 33  1  0  0  0  0
 32 31  1  0  0  0  0
 32 59  1  0  0  0  0
 32 60  1  0  0  0  0
 32 61  1  0  0  0  0
 33 35  1  0  0  0  0
 34 33  2  0  0  0  0
 35 36  1  0  0  0  0
 35 62  1  0  0  0  0
 35 63  1  0  0  0  0
 36 42  1  0  0  0  0
 36 37  1  0  0  0  0
 37 38  1  0  0  0  0
 37 64  1  0  0  0  0
 37 65  1  0  0  0  0
 38 66  1  0  0  0  0
 38 67  1  0  0  0  0
 39 38  1  0  0  0  0
 40 39  1  0  0  0  0
 40 68  1  0  0  0  0
 40 69  1  0  0  0  0
 40 70  1  0  0  0  0
 41 39  1  0  0  0  0
 41 71  1  0  0  0  0
 41 72  1  0  0  0  0
 42 41  1  0  0  0  0
 42 73  1  0  0  0  0
 42 74  1  0  0  0  0
M  END
>  <REMARK>
 VINA RESULT:      -7.1      2.818     10.471
  8 active torsions:
  status: ('A' for Active; 'I' for Inactive)
    1  A    between atoms: O_2  and  C_3 
    2  A    between atoms: C_3  and  C_5 
    3  A    between atoms: C_15  and  C_16 
    4  A    between atoms: C_16  and  C_37 
    5  A    between atoms: N_17  and  C_19 
    6  A    between atoms: C_22  and  N_23 
       I    between atoms: N_23  and  C_25 
    7  A    between atoms: C_25  and  C_27 
    8  A    between atoms: C_27  and  N_28 

>  <TORSDO>
F 8

$$$$
resistance_project/docking/5319283d3047ac55/Q9UM73_L1196M/docked/molecule_0009_out.pdbqt
 OpenBabel09232609193D

 74 78  0  0  1  0  0  0  0  0999 V2000
   34.7240   45.5330    7.0320 C   0  0  0  0  0  0  0  0  0  0  0  0
   35.7300   45.1330    6.3340 N   0  0  0  0  0  0  0  0  0  0  0  0
   35.9570   44.1390    6.3680 H   0  0  0  0  0  0  0  0  0  0  0  0
   34.2740   46.9380    6.7930 C   0  0  2  0  0  0  0  0  0  0  0  0
   34.6010   47.8180    7.9530 C   0  0  0  0  0  0  0  0  0  0  0  0
   33.3730   48.3100    8.5020 N   0  0  0  0  0  0  0  0  0  0  0  0
   35.7480   48.0990    8.3960 O   0  0  0  0  0  0  0  0  0  0  0  0
   32.2850   47.7950    7.7480 C   0  0  0  0  0  0  0  0  0  0  0  0
   33.2930   48.9300    9.3070 H   0  0  0  0  0  0  0  0  0  0  0  0
   32.7730   46.9880    6.7320 C   0  0  0  0  0  0  0  0  0  0  0  0
   30.9310   48.0090    7.9250 C   0  0  0  0  0  0  0  0  0  0  0  0
   31.8210   46.4140    5.9120 C   0  0  0  0  0  0  0  0  0  0  0  0
   30.4640   46.6230    6.0810 C   0  0  0  0  0  0  0  0  0  0  0  0
   29.9930   47.4290    7.0960 C   0  0  0  0  0  0  0  0  0  0  0  0
   28.5630   47.6290    7.2510 C   0  0  0  0  0  0  0  0  0  0  0  0
   27.9500   48.3500    6.4380 O   0  0  0  0  0  0  0  0  0  0  0  0
   27.9500   46.9870    8.3310 O   0  0  0  0  0  0  0  0  0  0  0  0
   28.2110   45.5970    8.5330 C   0  0  0  0  0  0  0  0  0  0  0  0
   34.0350   44.7080    8.0150 C   0  0  0  0  0  0  0  0  0  0  0  0
   34.2470   44.8950    9.3680 C   0  0  0  0  0  0  0  0  0  0  0  0
   33.5940   44.1070   10.2800 C   0  0  0  0  0  0  0  0  0  0  0  0
   32.7300   43.1320    9.8710 C   0  0  0  0  0  0  0  0  0  0  0  0
   32.5290   42.9570    8.5300 C   0  0  0  0  0  0  0  0  0  0  0  0
   33.1670   43.7290    7.5850 C   0  0  0  0  0  0  0  0  0  0  0  0
   36.5420   45.9550    5.5310 C   0  0  0  0  0  0  0  0  0  0  0  0
   36.2740   46.1560    4.1760 C   0  0  0  0  0  0  0  0  0  0  0  0
   37.0970   46.9730    3.4500 C   0  0  0  0  0  0  0  0  0  0  0  0
   38.1950   47.6120    4.0100 C   0  0  0  0  0  0  0  0  0  0  0  0
   38.4150   47.3800    5.3490 C   0  0  0  0  0  0  0  0  0  0  0  0
   37.6250   46.5680    6.1410 C   0  0  0  0  0  0  0  0  0  0  0  0
   39.0350   48.4820    3.2320 N   0  0  0  0  0  0  0  0  0  0  0  0
   40.3110   47.9420    2.8200 C   0  0  0  0  0  0  0  0  0  0  0  0
   38.5760   49.7820    2.9310 C   0  0  0  0  0  0  0  0  0  0  0  0
   39.2950   50.4460    2.1030 O   0  0  0  0  0  0  0  0  0  0  0  0
   37.3880   50.4370    3.4540 C   0  0  0  0  0  0  0  0  0  0  0  0
   37.4630   51.0340    4.7270 N   0  0  0  0  0  0  0  0  0  0  0  0
   37.9220   52.3870    4.8010 C   0  0  0  0  0  0  0  0  0  0  0  0
   37.0720   53.0800    5.8690 C   0  0  0  0  0  0  0  0  0  0  0  0
   37.3190   52.4720    7.1740 N   0  0  0  0  0  0  0  0  0  0  0  0
   38.6920   52.6900    7.5940 C   0  0  0  0  0  0  0  0  0  0  0  0
   37.0840   51.0390    7.0890 C   0  0  0  0  0  0  0  0  0  0  0  0
   36.5310   50.6610    5.7210 C   0  0  0  0  0  0  0  0  0  0  0  0
   34.7548   47.2567    5.8918 H   0  0  0  0  0  0  0  0  0  0  0  0
   30.6140   48.6174    8.6960 H   0  0  0  0  0  0  0  0  0  0  0  0
   32.1352   45.8039    5.1412 H   0  0  0  0  0  0  0  0  0  0  0  0
   29.7952   46.1697    5.4389 H   0  0  0  0  0  0  0  0  0  0  0  0
   27.6735   45.2544    9.3924 H   0  0  0  0  0  0  0  0  0  0  0  0
   29.2597   45.4496    8.6861 H   0  0  0  0  0  0  0  0  0  0  0  0
   27.8953   45.0460    7.6718 H   0  0  0  0  0  0  0  0  0  0  0  0
   34.8972   45.6282    9.6917 H   0  0  0  0  0  0  0  0  0  0  0  0
   33.7575   44.2525   11.2885 H   0  0  0  0  0  0  0  0  0  0  0  0
   32.2393   42.5399   10.5592 H   0  0  0  0  0  0  0  0  0  0  0  0
   31.8771   42.2214    8.2154 H   0  0  0  0  0  0  0  0  0  0  0  0
   32.9987   43.5775    6.5781 H   0  0  0  0  0  0  0  0  0  0  0  0
   35.4666   45.6949    3.7282 H   0  0  0  0  0  0  0  0  0  0  0  0
   36.8941   47.1197    2.4488 H   0  0  0  0  0  0  0  0  0  0  0  0
   39.2241   47.8435    5.7912 H   0  0  0  0  0  0  0  0  0  0  0  0
   37.8324   46.4246    7.1417 H   0  0  0  0  0  0  0  0  0  0  0  0
   40.8424   48.6765    2.2517 H   0  0  0  0  0  0  0  0  0  0  0  0
   40.1524   47.0716    2.2182 H   0  0  0  0  0  0  0  0  0  0  0  0
   40.8827   47.6782    3.6851 H   0  0  0  0  0  0  0  0  0  0  0  0
   36.6118   49.7016    3.4938 H   0  0  0  0  0  0  0  0  0  0  0  0
   37.2216   51.2565    2.7864 H   0  0  0  0  0  0  0  0  0  0  0  0
   37.7947   52.8722    3.8558 H   0  0  0  0  0  0  0  0  0  0  0  0
   38.9620   52.4284    5.0491 H   0  0  0  0  0  0  0  0  0  0  0  0
   36.0365   52.9769    5.6200 H   0  0  0  0  0  0  0  0  0  0  0  0
   37.3334   54.1168    5.9087 H   0  0  0  0  0  0  0  0  0  0  0  0
   38.8817   53.7409    7.6616 H   0  0  0  0  0  0  0  0  0  0  0  0
   39.3574   52.2527    6.8792 H   0  0  0  0  0  0  0  0  0  0  0  0
   38.8485   52.2370    8.5507 H   0  0  0  0  0  0  0  0  0  0  0  0
   38.0071   50.5222    7.2491 H   0  0  0  0  0  0  0  0  0  0  0  0
   36.3685   50.7642    7.8357 H   0  0  0  0  0  0  0  0  0  0  0  0
   36.3671   49.6044    5.6802 H   0  0  0  0  0  0  0  0  0  0  0  0
   35.6036   51.1679    5.5542 H   0  0  0  0  0  0  0  0  0  0  0  0
  1 19  1  0  0  0  0
  2  3  1  0  0  0  0
  2  1  2  0  0  0  0
  4  1  1  0  0  0  0
  4  5  1  0  0  0  0
  4 43  1  6  0  0  0
  5  7  2  0  0  0  0
  5  6  1  0  0  0  0
  6  9  1  0  0  0  0
  8 11  1  0  0  0  0
  8  6  1  0  0  0  0
 10  4  1  0  0  0  0
 10  8  2  0  0  0  0
 11 44  1  0  0  0  0
 12 13  2  0  0  0  0
 12 10  1  0  0  0  0
 12 45  1  0  0  0  0
 13 14  1  0  0  0  0
 13 46  1  0  0  0  0
 14 15  1  0  0  0  0
 14 11  2  0  0  0  0
 15 17  1  0  0  0  0
 16 15  2  0  0  0  0
 17 18  1  0  0  0  0
 18 47  1  0  0  0  0
 18 48  1  0  0  0  0
 18 49  1  0  0  0  0
 19 20  1  0  0  0  0
 20 21  2  0  0  0  0
 20 50  1  0  0  0  0
 21 51  1  0  0  0  0
 22 21  1  0  0  0  0
 22 52  1  0  0  0  0
 23 22  2  0  0  0  0
 23 53  1  0  0  0  0
 24 19  2  0  0  0  0
 24 23  1  0  0  0  0
 24 54  1  0  0  0  0
 25 30  1  0  0  0  0
 25  2  1  0  0  0  0
 26 25  2  0  0  0  0
 26 55  1  0  0  0  0
 27 28  2  0  0  0  0
 27 26  1  0  0  0  0
 27 56  1  0  0  0  0
 28 29  1  0  0  0  0
 29 30  2  0  0  0  0
 29 57  1  0  0  0  0
 30 58  1  0  0  0  0
 31 28  1  0  0  0  0
 32 31  1  0  0  0  0
 32 59  1  0  0  0  0
 32 60  1  0  0  0  0
 32 61  1  0  0  0  0
 33 31  1  0  0  0  0
 33 35  1  0  0  0  0
 34 33  2  0  0  0  0
 35 36  1  0  0  0  0
 35 62  1  0  0  0  0
 35 63  1  0  0  0  0
 36 37  1  0  0  0  0
 36 42  1  0  0  0  0
 37 38  1  0  0  0  0
 37 64  1  0  0  0  0
 37 65  1  0  0  0  0
 38 39  1  0  0  0  0
 38 66  1  0  0  0  0
 38 67  1  0  0  0  0
 39 40  1  0  0  0  0
 40 68  1  0  0  0  0
 40 69  1  0  0  0  0
 40 70  1  0  0  0  0
 41 39  1  0  0  0  0
 41 71  1  0  0  0  0
 41 72  1  0  0  0  0
 42 41  1  0  0  0  0
 42 73  1  0  0  0  0
 42 74  1  0  0  0  0
M  END
>  <REMARK>
 VINA RESULT:      -7.0      3.554      8.028
  8 active torsions:
  status: ('A' for Active; 'I' for Inactive)
    1  A    between atoms: O_2  and  C_3 
    2  A    between atoms: C_3  and  C_5 
    3  A    between atoms: C_15  and  C_16 
    4  A    between atoms: C_16  and  C_37 
    5  A    between atoms: N_17  and  C_19 
    6  A    between atoms: C_22  and  N_23 
       I    between atoms: N_23  and  C_25 
    7  A    between atoms: C_25  and  C_27 
    8  A    between atoms: C_27  and  N_28 

>  <TORSDO>
F 8

$$$$
resistance_project/docking/5319283d3047ac55/Q9UM73_L1196M/docked/molecule_0009_out.pdbqt
 OpenBabel09232609193D

 74 78  0  0  1  0  0  0  0  0999 V2000
   33.7780   48.0480    5.6430 C   0  0  0  0  0  0  0  0  0  0  0  0
   32.8960   48.6850    4.9530 N   0  0  0  0  0  0  0  0  0  0  0  0
   32.7730   48.4070    3.9800 H   0  0  0  0  0  0  0  0  0  0  0  0
   33.7840   48.3160    7.1130 C   0  0  2  0  0  0  0  0  0  0  0  0
   35.1430   48.7010    7.5910 C   0  0  0  0  0  0  0  0  0  0  0  0
   35.5860   47.7110    8.5260 N   0  0  0  0  0  0  0  0  0  0  0  0
   35.8110   49.7150    7.2500 O   0  0  0  0  0  0  0  0  0  0  0  0
   34.5780   46.7220    8.6730 C   0  0  0  0  0  0  0  0  0  0  0  0
   36.4840   47.7160    9.0090 H   0  0  0  0  0  0  0  0  0  0  0  0
   33.5000   47.0440    7.8630 C   0  0  0  0  0  0  0  0  0  0  0  0
   34.5820   45.5930    9.4680 C   0  0  0  0  0  0  0  0  0  0  0  0
   32.4360   46.1630    7.9020 C   0  0  0  0  0  0  0  0  0  0  0  0
   32.4310   45.0310    8.6950 C   0  0  0  0  0  0  0  0  0  0  0  0
   33.5110   44.7240    9.4970 C   0  0  0  0  0  0  0  0  0  0  0  0
   33.4800   43.5260   10.3190 C   0  0  0  0  0  0  0  0  0  0  0  0
   32.3840   43.0780   10.7130 O   0  0  0  0  0  0  0  0  0  0  0  0
   34.7120   42.9390   10.6250 O   0  0  0  0  0  0  0  0  0  0  0  0
   35.1500   41.8300    9.8390 C   0  0  0  0  0  0  0  0  0  0  0  0
   34.7430   47.1180    5.0710 C   0  0  0  0  0  0  0  0  0  0  0  0
   35.9260   47.5750    4.5220 C   0  0  0  0  0  0  0  0  0  0  0  0
   36.8200   46.6870    3.9840 C   0  0  0  0  0  0  0  0  0  0  0  0
   36.5610   45.3460    3.9820 C   0  0  0  0  0  0  0  0  0  0  0  0
   35.3870   44.9070    4.5290 C   0  0  0  0  0  0  0  0  0  0  0  0
   34.4640   45.7690    5.0770 C   0  0  0  0  0  0  0  0  0  0  0  0
   32.0900   49.7350    5.4330 C   0  0  0  0  0  0  0  0  0  0  0  0
   32.3740   51.0710    5.1440 C   0  0  0  0  0  0  0  0  0  0  0  0
   31.5480   52.0460    5.6330 C   0  0  0  0  0  0  0  0  0  0  0  0
   30.4350   51.7570    6.4120 C   0  0  0  0  0  0  0  0  0  0  0  0
   30.2020   50.4250    6.6680 C   0  0  0  0  0  0  0  0  0  0  0  0
   30.9930   49.3910    6.2060 C   0  0  0  0  0  0  0  0  0  0  0  0
   29.5700   52.7980    6.9000 N   0  0  0  0  0  0  0  0  0  0  0  0
   30.0510   53.5520    8.0360 C   0  0  0  0  0  0  0  0  0  0  0  0
   28.3310   53.0100    6.2600 C   0  0  0  0  0  0  0  0  0  0  0  0
   27.6830   54.0500    6.6360 O   0  0  0  0  0  0  0  0  0  0  0  0
   27.7210   52.1830    5.2310 C   0  0  0  0  0  0  0  0  0  0  0  0
   26.5310   51.4990    5.5430 N   0  0  0  0  0  0  0  0  0  0  0  0
   25.3450   51.8720    4.8350 C   0  0  0  0  0  0  0  0  0  0  0  0
   24.5780   50.5780    4.5530 C   0  0  0  0  0  0  0  0  0  0  0  0
   24.1510   49.9680    5.8110 N   0  0  0  0  0  0  0  0  0  0  0  0
   23.2000   50.8200    6.5020 C   0  0  0  0  0  0  0  0  0  0  0  0
   25.3100   49.7780    6.6700 C   0  0  0  0  0  0  0  0  0  0  0  0
   26.5940   50.1450    5.9370 C   0  0  0  0  0  0  0  0  0  0  0  0
   33.0613   49.0875    7.2784 H   0  0  0  0  0  0  0  0  0  0  0  0
   35.4070   45.3943   10.0553 H   0  0  0  0  0  0  0  0  0  0  0  0
   31.6105   46.3585    7.3143 H   0  0  0  0  0  0  0  0  0  0  0  0
   31.6088   44.4073    8.6872 H   0  0  0  0  0  0  0  0  0  0  0  0
   36.1023   41.4953   10.1939 H   0  0  0  0  0  0  0  0  0  0  0  0
   35.2361   42.1301    8.8156 H   0  0  0  0  0  0  0  0  0  0  0  0
   34.4397   41.0337    9.9187 H   0  0  0  0  0  0  0  0  0  0  0  0
   36.1361   48.5854    4.5172 H   0  0  0  0  0  0  0  0  0  0  0  0
   37.7008   47.0361    3.5748 H   0  0  0  0  0  0  0  0  0  0  0  0
   37.2361   44.6789    3.5768 H   0  0  0  0  0  0  0  0  0  0  0  0
   35.1861   43.8948    4.5311 H   0  0  0  0  0  0  0  0  0  0  0  0
   33.5843   45.4131    5.4825 H   0  0  0  0  0  0  0  0  0  0  0  0
   33.1948   51.3195    4.5700 H   0  0  0  0  0  0  0  0  0  0  0  0
   31.7597   53.0323    5.4150 H   0  0  0  0  0  0  0  0  0  0  0  0
   29.3809   50.1822    7.2440 H   0  0  0  0  0  0  0  0  0  0  0  0
   30.7765   48.4064    6.4268 H   0  0  0  0  0  0  0  0  0  0  0  0
   29.3266   54.2920    8.3055 H   0  0  0  0  0  0  0  0  0  0  0  0
   30.9730   54.0316    7.7813 H   0  0  0  0  0  0  0  0  0  0  0  0
   30.2094   52.8905    8.8620 H   0  0  0  0  0  0  0  0  0  0  0  0
   27.5113   52.8190    4.3965 H   0  0  0  0  0  0  0  0  0  0  0  0
   28.4354   51.4051    5.0595 H   0  0  0  0  0  0  0  0  0  0  0  0
   24.7502   52.5308    5.4326 H   0  0  0  0  0  0  0  0  0  0  0  0
   25.5834   52.3847    3.9266 H   0  0  0  0  0  0  0  0  0  0  0  0
   25.2131   49.8969    4.0261 H   0  0  0  0  0  0  0  0  0  0  0  0
   23.7161   50.8017    3.9598 H   0  0  0  0  0  0  0  0  0  0  0  0
   22.3402   50.9701    5.8830 H   0  0  0  0  0  0  0  0  0  0  0  0
   23.6559   51.7645    6.7143 H   0  0  0  0  0  0  0  0  0  0  0  0
   22.9030   50.3534    7.4180 H   0  0  0  0  0  0  0  0  0  0  0  0
   25.3590   48.7524    6.9709 H   0  0  0  0  0  0  0  0  0  0  0  0
   25.2103   50.4133    7.5252 H   0  0  0  0  0  0  0  0  0  0  0  0
   27.4315   49.9997    6.5869 H   0  0  0  0  0  0  0  0  0  0  0  0
   26.7058   49.5234    5.0733 H   0  0  0  0  0  0  0  0  0  0  0  0
  1  4  1  0  0  0  0
  2 25  1  0  0  0  0
  2  1  2  0  0  0  0
  3  2  1  0  0  0  0
  4  5  1  0  0  0  0
  4 10  1  0  0  0  0
  4 43  1  1  0  0  0
  5  6  1  0  0  0  0
  6  8  1  0  0  0  0
  6  9  1  0  0  0  0
  7  5  2  0  0  0  0
  8 11  2  0  0  0  0
 10 12  2  0  0  0  0
 10  8  1  0  0  0  0
 11 14  1  0  0  0  0
 11 44  1  0  0  0  0
 12 13  1  0  0  0  0
 12 45  1  0  0  0  0
 13 14  2  0  0  0  0
 13 46  1  0  0  0  0
 14 15  1  0  0  0  0
 15 17  1  0  0  0  0
 15 16  2  0  0  0  0
 18 17  1  0  0  0  0
 18 47  1  0  0  0  0
 18 48  1  0  0  0  0
 18 49  1  0  0  0  0
 19 24  1  0  0  0  0
 19  1  1  0  0  0  0
 20 19  2  0  0  0  0
 20 50  1  0  0  0  0
 21 20  1  0  0  0  0
 21 51  1  0  0  0  0
 22 21  2  0  0  0  0
 22 23  1  0  0  0  0
 22 52  1  0  0  0  0
 23 24  2  0  0  0  0
 23 53  1  0  0  0  0
 24 54  1  0  0  0  0
 25 30  1  0  0  0  0
 26 25  2  0  0  0  0
 26 27  1  0  0  0  0
 26 55  1  0  0  0  0
 27 28  2  0  0  0  0
 27 56  1  0  0  0  0
 28 29  1  0  0  0  0
 28 31  1  0  0  0  0
 29 57  1  0  0  0  0
 30 29  2  0  0  0  0
 30 58  1  0  0  0  0
 31 32  1  0  0  0  0
 32 59  1  0  0  0  0
 32 60  1  0  0  0  0
 32 61  1  0  0  0  0
 33 34  2  0  0  0  0
 33 31  1  0  0  0  0
 35 36  1  0  0  0  0
 35 33  1  0  0  0  0
 35 62  1  0  0  0  0
 35 63  1  0  0  0  0
 36 42  1  0  0  0  0
 37 36  1  0  0  0  0
 37 64  1  0  0  0  0
 37 65  1  0  0  0  0
 38 37  1  0  0  0  0
 38 39  1  0  0  0  0
 38 66  1  0  0  0  0
 38 67  1  0  0  0  0
 39 40  1  0  0  0  0
 39 41  1  0  0  0  0
 40 68  1  0  0  0  0
 40 69  1  0  0  0  0
 40 70  1  0  0  0  0
 41 71  1  0  0  0  0
 41 72  1  0  0  0  0
 42 41  1  0  0  0  0
 42 73  1  0  0  0  0
 42 74  1  0  0  0  0
M  END
>  <REMARK>
 VINA RESULT:      -6.9      2.510      3.989
  8 active torsions:
  status: ('A' for Active; 'I' for Inactive)
    1  A    between atoms: O_2  and  C_3 
    2  A    between atoms: C_3  and  C_5 
    3  A    between atoms: C_15  and  C_16 
    4  A    between atoms: C_16  and  C_37 
    5  A    between atoms: N_17  and  C_19 
    6  A    between atoms: C_22  and  N_23 
       I    between atoms: N_23  and  C_25 
    7  A    between atoms: C_25  and  C_27 
    8  A    between atoms: C_27  and  N_28 

>  <TORSDO>
F 8

$$$$
resistance_project/docking/5319283d3047ac55/Q9UM73_L1196M/docked/molecule_0009_out.pdbqt
 OpenBabel09232609193D

 74 78  0  0  1  0  0  0  0  0999 V2000
   31.6860   47.0950    7.4320 C   0  0  0  0  0  0  0  0  0  0  0  0
   30.7790   47.9250    7.8170 N   0  0  0  0  0  0  0  0  0  0  0  0
   30.2760   47.7040    8.6770 H   0  0  0  0  0  0  0  0  0  0  0  0
   32.5570   47.5470    6.3050 C   0  0  2  0  0  0  0  0  0  0  0  0
   32.6350   46.5150    5.2310 C   0  0  0  0  0  0  0  0  0  0  0  0
   33.9960   46.0830    5.1230 N   0  0  0  0  0  0  0  0  0  0  0  0
   31.6860   46.0790    4.5240 O   0  0  0  0  0  0  0  0  0  0  0  0
   34.7870   46.7910    6.0660 C   0  0  0  0  0  0  0  0  0  0  0  0
   34.3420   45.3780    4.4730 H   0  0  0  0  0  0  0  0  0  0  0  0
   33.9790   47.6640    6.7780 C   0  0  0  0  0  0  0  0  0  0  0  0
   36.1440   46.6930    6.3060 C   0  0  0  0  0  0  0  0  0  0  0  0
   34.6170   48.4260    7.7380 C   0  0  0  0  0  0  0  0  0  0  0  0
   35.9750   48.3340    7.9850 C   0  0  0  0  0  0  0  0  0  0  0  0
   36.7670   47.4600    7.2680 C   0  0  0  0  0  0  0  0  0  0  0  0
   38.1900   47.3830    7.5500 C   0  0  0  0  0  0  0  0  0  0  0  0
   38.7820   48.3810    8.0100 O   0  0  0  0  0  0  0  0  0  0  0  0
   38.8210   46.1650    7.2780 O   0  0  0  0  0  0  0  0  0  0  0  0
   39.1890   45.3300    8.3770 C   0  0  0  0  0  0  0  0  0  0  0  0
   31.8860   45.7780    8.0210 C   0  0  0  0  0  0  0  0  0  0  0  0
   33.0090   45.5060    8.7800 C   0  0  0  0  0  0  0  0  0  0  0  0
   33.1840   44.2600    9.3240 C   0  0  0  0  0  0  0  0  0  0  0  0
   32.2600   43.2740    9.1270 C   0  0  0  0  0  0  0  0  0  0  0  0
   31.1530   43.5560    8.3740 C   0  0  0  0  0  0  0  0  0  0  0  0
   30.9440   44.7950    7.8120 C   0  0  0  0  0  0  0  0  0  0  0  0
   30.4230   49.1100    7.1460 C   0  0  0  0  0  0  0  0  0  0  0  0
   29.2430   49.2120    6.4070 C   0  0  0  0  0  0  0  0  0  0  0  0
   28.9490   50.3940    5.7840 C   0  0  0  0  0  0  0  0  0  0  0  0
   29.7850   51.5010    5.8560 C   0  0  0  0  0  0  0  0  0  0  0  0
   30.9350   51.3470    6.5950 C   0  0  0  0  0  0  0  0  0  0  0  0
   31.2930   50.1840    7.2500 C   0  0  0  0  0  0  0  0  0  0  0  0
   29.4460   52.7400    5.2080 N   0  0  0  0  0  0  0  0  0  0  0  0
   29.9240   52.9070    3.8530 C   0  0  0  0  0  0  0  0  0  0  0  0
   28.6920   53.6980    5.9190 C   0  0  0  0  0  0  0  0  0  0  0  0
   28.2870   54.7040    5.2360 O   0  0  0  0  0  0  0  0  0  0  0  0
   28.3310   53.6600    7.3270 C   0  0  0  0  0  0  0  0  0  0  0  0
   27.3600   54.5680    7.7900 N   0  0  0  0  0  0  0  0  0  0  0  0
   26.0030   54.1180    7.8460 C   0  0  0  0  0  0  0  0  0  0  0  0
   25.3990   54.7040    9.1250 C   0  0  0  0  0  0  0  0  0  0  0  0
   25.3640   56.1620    9.0370 N   0  0  0  0  0  0  0  0  0  0  0  0
   24.4730   56.5940    7.9750 C   0  0  0  0  0  0  0  0  0  0  0  0
   26.7000   56.6590    8.7480 C   0  0  0  0  0  0  0  0  0  0  0  0
   27.7160   55.5240    8.7670 C   0  0  0  0  0  0  0  0  0  0  0  0
   32.1396   48.4678    5.9546 H   0  0  0  0  0  0  0  0  0  0  0  0
   36.7060   46.0287    5.7511 H   0  0  0  0  0  0  0  0  0  0  0  0
   34.0572   49.0914    8.2938 H   0  0  0  0  0  0  0  0  0  0  0  0
   36.4014   48.9264    8.7146 H   0  0  0  0  0  0  0  0  0  0  0  0
   39.6578   44.4415    8.0086 H   0  0  0  0  0  0  0  0  0  0  0  0
   38.3139   45.0669    8.9337 H   0  0  0  0  0  0  0  0  0  0  0  0
   39.8709   45.8561    9.0119 H   0  0  0  0  0  0  0  0  0  0  0  0
   33.7159   46.2413    8.9371 H   0  0  0  0  0  0  0  0  0  0  0  0
   34.0248   44.0646    9.8896 H   0  0  0  0  0  0  0  0  0  0  0  0
   32.3938   42.3365    9.5372 H   0  0  0  0  0  0  0  0  0  0  0  0
   30.4511   42.8148    8.2223 H   0  0  0  0  0  0  0  0  0  0  0  0
   30.1011   44.9831    7.2471 H   0  0  0  0  0  0  0  0  0  0  0  0
   28.6015   48.4071    6.3317 H   0  0  0  0  0  0  0  0  0  0  0  0
   28.0744   50.4658    5.2409 H   0  0  0  0  0  0  0  0  0  0  0  0
   31.5736   52.1546    6.6650 H   0  0  0  0  0  0  0  0  0  0  0  0
   32.1687   50.1181    7.7921 H   0  0  0  0  0  0  0  0  0  0  0  0
   30.4665   52.0339    3.5560 H   0  0  0  0  0  0  0  0  0  0  0  0
   30.5675   53.7605    3.8044 H   0  0  0  0  0  0  0  0  0  0  0  0
   29.0915   53.0502    3.1962 H   0  0  0  0  0  0  0  0  0  0  0  0
   29.2244   53.8375    7.8884 H   0  0  0  0  0  0  0  0  0  0  0  0
   27.8792   52.6990    7.4588 H   0  0  0  0  0  0  0  0  0  0  0  0
   25.9698   53.0490    7.8784 H   0  0  0  0  0  0  0  0  0  0  0  0
   25.4564   54.4335    6.9820 H   0  0  0  0  0  0  0  0  0  0  0  0
   25.9958   54.4136    9.9643 H   0  0  0  0  0  0  0  0  0  0  0  0
   24.4019   54.3347    9.2445 H   0  0  0  0  0  0  0  0  0  0  0  0
   24.4638   57.6630    7.9299 H   0  0  0  0  0  0  0  0  0  0  0  0
   23.4838   56.2368    8.1720 H   0  0  0  0  0  0  0  0  0  0  0  0
   24.8148   56.2005    7.0405 H   0  0  0  0  0  0  0  0  0  0  0  0
   26.7025   57.1158    7.7804 H   0  0  0  0  0  0  0  0  0  0  0  0
   26.9697   57.3730    9.4980 H   0  0  0  0  0  0  0  0  0  0  0  0
   28.6898   55.9113    8.5511 H   0  0  0  0  0  0  0  0  0  0  0  0
   27.7254   55.0651    9.7335 H   0  0  0  0  0  0  0  0  0  0  0  0
  1  2  2  0  0  0  0
  1 19  1  0  0  0  0
  2  3  1  0  0  0  0
  4 10  1  0  0  0  0
  4  1  1  0  0  0  0
  4 43  1  6  0  0  0
  5  4  1  0  0  0  0
  6  5  1  0  0  0  0
  6  8  1  0  0  0  0
  7  5  2  0  0  0  0
  8 11  2  0  0  0  0
  8 10  1  0  0  0  0
  9  6  1  0  0  0  0
 10 12  2  0  0  0  0
 11 14  1  0  0  0  0
 11 44  1  0  0  0  0
 12 13  1  0  0  0  0
 12 45  1  0  0  0  0
 13 46  1  0  0  0  0
 14 15  1  0  0  0  0
 14 13  2  0  0  0  0
 15 16  2  0  0  0  0
 17 15  1  0  0  0  0
 17 18  1  0  0  0  0
 18 47  1  0  0  0  0
 18 48  1  0  0  0  0
 18 49  1  0  0  0  0
 19 20  1  0  0  0  0
 20 21  2  0  0  0  0
 20 50  1  0  0  0  0
 21 51  1  0  0  0  0
 22 21  1  0  0  0  0
 22 52  1  0  0  0  0
 23 22  2  0  0  0  0
 23 53  1  0  0  0  0
 24 19  2  0  0  0  0
 24 23  1  0  0  0  0
 24 54  1  0  0  0  0
 25 30  1  0  0  0  0
 25  2  1  0  0  0  0
 26 25  2  0  0  0  0
 26 55  1  0  0  0  0
 27 28  2  0  0  0  0
 27 26  1  0  0  0  0
 27 56  1  0  0  0  0
 28 29  1  0  0  0  0
 29 30  2  0  0  0  0
 29 57  1  0  0  0  0
 30 58  1  0  0  0  0
 31 28  1  0  0  0  0
 31 33  1  0  0  0  0
 32 31  1  0  0  0  0
 32 59  1  0  0  0  0
 32 60  1  0  0  0  0
 32 61  1  0  0  0  0
 33 35  1  0  0  0  0
 34 33  2  0  0  0  0
 35 36  1  0  0  0  0
 35 62  1  0  0  0  0
 35 63  1  0  0  0  0
 36 37  1  0  0  0  0
 36 42  1  0  0  0  0
 37 38  1  0  0  0  0
 37 64  1  0  0  0  0
 37 65  1  0  0  0  0
 38 66  1  0  0  0  0
 38 67  1  0  0  0  0
 39 38  1  0  0  0  0
 40 39  1  0  0  0  0
 40 68  1  0  0  0  0
 40 69  1  0  0  0  0
 40 70  1  0  0  0  0
 41 42  1  0  0  0  0
 41 39  1  0  0  0  0
 41 71  1  0  0  0  0
 41 72  1  0  0  0  0
 42 73  1  0  0  0  0
 42 74  1  0  0  0  0
M  END
>  <REMARK>
 VINA RESULT:      -6.9      3.116      5.619
  8 active torsions:
  status: ('A' for Active; 'I' for Inactive)
    1  A    between atoms: O_2  and  C_3 
    2  A    between atoms: C_3  and  C_5 
    3  A    between atoms: C_15  and  C_16 
    4  A    between atoms: C_16  and  C_37 
    5  A    between atoms: N_17  and  C_19 
    6  A    between atoms: C_22  and  N_23 
       I    between atoms: N_23  and  C_25 
    7  A    between atoms: C_25  and  C_27 
    8  A    between atoms: C_27  and  N_28 

>  <TORSDO>
F 8

$$$$
resistance_project/docking/5319283d3047ac55/Q9UM73_L1196M/docked/molecule_0009_out.pdbqt
 OpenBabel09232609193D

 74 78  0  0  1  0  0  0  0  0999 V2000
   33.4460   48.3100    5.4910 C   0  0  0  0  0  0  0  0  0  0  0  0
   32.6520   49.0650    4.8140 N   0  0  0  0  0  0  0  0  0  0  0  0
   32.6020   48.9080    3.8070 H   0  0  0  0  0  0  0  0  0  0  0  0
   33.3360   48.4050    6.9790 C   0  0  2  0  0  0  0  0  0  0  0  0
   34.6810   48.4100    7.6240 C   0  0  0  0  0  0  0  0  0  0  0  0
   34.7840   47.2480    8.4540 N   0  0  0  0  0  0  0  0  0  0  0  0
   35.5890   49.2740    7.4840 O   0  0  0  0  0  0  0  0  0  0  0  0
   33.5740   46.5090    8.3750 C   0  0  0  0  0  0  0  0  0  0  0  0
   35.5980   46.9910    9.0120 H   0  0  0  0  0  0  0  0  0  0  0  0
   32.6960   47.1580    7.5220 C   0  0  0  0  0  0  0  0  0  0  0  0
   33.2380   45.3280    9.0090 C   0  0  0  0  0  0  0  0  0  0  0  0
   31.4680   46.5490    7.3470 C   0  0  0  0  0  0  0  0  0  0  0  0
   31.1230   45.3670    7.9760 C   0  0  0  0  0  0  0  0  0  0  0  0
   32.0070   44.7320    8.8240 C   0  0  0  0  0  0  0  0  0  0  0  0
   31.6190   43.4910    9.4710 C   0  0  0  0  0  0  0  0  0  0  0  0
   32.4590   42.8540   10.1380 O   0  0  0  0  0  0  0  0  0  0  0  0
   30.2930   43.0790    9.2990 O   0  0  0  0  0  0  0  0  0  0  0  0
   29.4370   43.0490   10.4420 C   0  0  0  0  0  0  0  0  0  0  0  0
   34.4190   47.4060    4.8920 C   0  0  0  0  0  0  0  0  0  0  0  0
   35.6180   47.8840    4.3980 C   0  0  0  0  0  0  0  0  0  0  0  0
   36.5200   47.0200    3.8340 C   0  0  0  0  0  0  0  0  0  0  0  0
   36.2520   45.6840    3.7500 C   0  0  0  0  0  0  0  0  0  0  0  0
   35.0610   45.2240    4.2410 C   0  0  0  0  0  0  0  0  0  0  0  0
   34.1310   46.0610    4.8150 C   0  0  0  0  0  0  0  0  0  0  0  0
   31.8500   50.0910    5.3490 C   0  0  0  0  0  0  0  0  0  0  0  0
   32.1920   51.4380    5.2160 C   0  0  0  0  0  0  0  0  0  0  0  0
   31.3680   52.3890    5.7520 C   0  0  0  0  0  0  0  0  0  0  0  0
   30.1990   52.0650    6.4300 C   0  0  0  0  0  0  0  0  0  0  0  0
   29.9100   50.7240    6.5330 C   0  0  0  0  0  0  0  0  0  0  0  0
   30.6960   49.7120    6.0160 C   0  0  0  0  0  0  0  0  0  0  0  0
   29.3380   53.0830    6.9690 N   0  0  0  0  0  0  0  0  0  0  0  0
   29.8110   53.7620    8.1540 C   0  0  0  0  0  0  0  0  0  0  0  0
   28.1090   53.3450    6.3270 C   0  0  0  0  0  0  0  0  0  0  0  0
   27.4660   54.3670    6.7570 O   0  0  0  0  0  0  0  0  0  0  0  0
   27.5050   52.5870    5.2430 C   0  0  0  0  0  0  0  0  0  0  0  0
   26.3480   51.8350    5.5190 N   0  0  0  0  0  0  0  0  0  0  0  0
   25.1290   52.2350    4.8860 C   0  0  0  0  0  0  0  0  0  0  0  0
   24.3940   50.9490    4.4980 C   0  0  0  0  0  0  0  0  0  0  0  0
   24.0280   50.2020    5.7000 N   0  0  0  0  0  0  0  0  0  0  0  0
   23.0730   50.9480    6.5000 C   0  0  0  0  0  0  0  0  0  0  0  0
   25.2190   49.9690    6.5020 C   0  0  0  0  0  0  0  0  0  0  0  0
   26.4670   50.4510    5.7740 C   0  0  0  0  0  0  0  0  0  0  0  0
   32.7840   49.2989    7.1816 H   0  0  0  0  0  0  0  0  0  0  0  0
   33.9245   44.8806    9.6363 H   0  0  0  0  0  0  0  0  0  0  0  0
   30.7797   46.9950    6.7207 H   0  0  0  0  0  0  0  0  0  0  0  0
   30.1920   44.9543    7.8090 H   0  0  0  0  0  0  0  0  0  0  0  0
   28.4633   42.7152   10.1497 H   0  0  0  0  0  0  0  0  0  0  0  0
   29.3666   44.0311   10.8607 H   0  0  0  0  0  0  0  0  0  0  0  0
   29.8398   42.3782   11.1718 H   0  0  0  0  0  0  0  0  0  0  0  0
   35.8341   48.8916    4.4538 H   0  0  0  0  0  0  0  0  0  0  0  0
   37.4136   47.3841    3.4680 H   0  0  0  0  0  0  0  0  0  0  0  0
   36.9331   45.0353    3.3253 H   0  0  0  0  0  0  0  0  0  0  0  0
   34.8526   44.2152    4.1790 H   0  0  0  0  0  0  0  0  0  0  0  0
   33.2395   45.6899    5.1789 H   0  0  0  0  0  0  0  0  0  0  0  0
   33.0545   51.7123    4.7202 H   0  0  0  0  0  0  0  0  0  0  0  0
   31.6237   53.3835    5.6492 H   0  0  0  0  0  0  0  0  0  0  0  0
   29.0468   50.4554    7.0306 H   0  0  0  0  0  0  0  0  0  0  0  0
   30.4355   48.7190    6.1218 H   0  0  0  0  0  0  0  0  0  0  0  0
   29.0901   54.4917    8.4586 H   0  0  0  0  0  0  0  0  0  0  0  0
   30.7407   54.2467    7.9402 H   0  0  0  0  0  0  0  0  0  0  0  0
   29.9523   53.0503    8.9404 H   0  0  0  0  0  0  0  0  0  0  0  0
   27.2533   53.2838    4.4710 H   0  0  0  0  0  0  0  0  0  0  0  0
   28.2424   51.8541    4.9902 H   0  0  0  0  0  0  0  0  0  0  0  0
   24.5332   52.8106    5.5631 H   0  0  0  0  0  0  0  0  0  0  0  0
   25.3222   52.8428    4.0269 H   0  0  0  0  0  0  0  0  0  0  0  0
   25.0326   50.3463    3.8866 H   0  0  0  0  0  0  0  0  0  0  0  0
   23.5063   51.2009    3.9563 H   0  0  0  0  0  0  0  0  0  0  0  0
   22.1893   51.1284    5.9243 H   0  0  0  0  0  0  0  0  0  0  0  0
   23.5052   51.8822    6.7922 H   0  0  0  0  0  0  0  0  0  0  0  0
   22.8208   50.3831    7.3730 H   0  0  0  0  0  0  0  0  0  0  0  0
   25.3102   48.9210    6.6975 H   0  0  0  0  0  0  0  0  0  0  0  0
   25.1260   50.5133    7.4185 H   0  0  0  0  0  0  0  0  0  0  0  0
   27.3285   50.2716    6.3827 H   0  0  0  0  0  0  0  0  0  0  0  0
   26.5720   49.9220    4.8499 H   0  0  0  0  0  0  0  0  0  0  0  0
  1  4  1  0  0  0  0
  2 25  1  0  0  0  0
  2  1  2  0  0  0  0
  3  2  1  0  0  0  0
  4 10  1  0  0  0  0
  4  5  1  0  0  0  0
  4 43  1  1  0  0  0
  5  6  1  0  0  0  0
  6  9  1  0  0  0  0
  7  5  2  0  0  0  0
  8  6  1  0  0  0  0
  8 11  2  0  0  0  0
 10  8  1  0  0  0  0
 11 44  1  0  0  0  0
 12 10  2  0  0  0  0
 12 13  1  0  0  0  0
 12 45  1  0  0  0  0
 13 14  2  0  0  0  0
 13 46  1  0  0  0  0
 14 11  1  0  0  0  0
 14 15  1  0  0  0  0
 15 16  2  0  0  0  0
 17 15  1  0  0  0  0
 17 18  1  0  0  0  0
 18 47  1  0  0  0  0
 18 48  1  0  0  0  0
 18 49  1  0  0  0  0
 19  1  1  0  0  0  0
 20 19  2  0  0  0  0
 20 50  1  0  0  0  0
 21 20  1  0  0  0  0
 21 51  1  0  0  0  0
 22 21  2  0  0  0  0
 22 23  1  0  0  0  0
 22 52  1  0  0  0  0
 23 24  2  0  0  0  0
 23 53  1  0  0  0  0
 24 19  1  0  0  0  0
 24 54  1  0  0  0  0
 25 30  1  0  0  0  0
 26 25  2  0  0  0  0
 26 27  1  0  0  0  0
 26 55  1  0  0  0  0
 27 28  2  0  0  0  0
 27 56  1  0  0  0  0
 28 29  1  0  0  0  0
 28 31  1  0  0  0  0
 29 57  1  0  0  0  0
 30 29  2  0  0  0  0
 30 58  1  0  0  0  0
 31 32  1  0  0  0  0
 32 59  1  0  0  0  0
 32 60  1  0  0  0  0
 32 61  1  0  0  0  0
 33 34  2  0  0  0  0
 33 31  1  0  0  0  0
 35 36  1  0  0  0  0
 35 33  1  0  0  0  0
 35 62  1  0  0  0  0
 35 63  1  0  0  0  0
 36 42  1  0  0  0  0
 37 36  1  0  0  0  0
 37 64  1  0  0  0  0
 37 65  1  0  0  0  0
 38 37  1  0  0  0  0
 38 39  1  0  0  0  0
 38 66  1  0  0  0  0
 38 67  1  0  0  0  0
 39 40  1  0  0  0  0
 39 41  1  0  0  0  0
 40 68  1  0  0  0  0
 40 69  1  0  0  0  0
 40 70  1  0  0  0  0
 41 71  1  0  0  0  0
 41 72  1  0  0  0  0
 42 41  1  0  0  0  0
 42 73  1  0  0  0  0
 42 74  1  0  0  0  0
M  END
>  <REMARK>
 VINA RESULT:      -6.9      2.917      4.392
  8 active torsions:
  status: ('A' for Active; 'I' for Inactive)
    1  A    between atoms: O_2  and  C_3 
    2  A    between atoms: C_3  and  C_5 
    3  A    between atoms: C_15  and  C_16 
    4  A    between atoms: C_16  and  C_37 
    5  A    between atoms: N_17  and  C_19 
    6  A    between atoms: C_22  and  N_23 
       I    between atoms: N_23  and  C_25 
    7  A    between atoms: C_25  and  C_27 
    8  A    between atoms: C_27  and  N_28 

>  <TORSDO>
F 8

$$$$
resistance_project/docking/5319283d3047ac55/Q9UM73_L1196M/docked/molecule_0009_out.pdbqt
 OpenBabel09232609193D

 74 78  0  0  1  0  0  0  0  0999 V2000
   36.7040   46.6260    6.2160 C   0  0  0  0  0  0  0  0  0  0  0  0
   36.6540   45.4300    6.6920 N   0  0  0  0  0  0  0  0  0  0  0  0
   37.4550   44.8230    6.5190 H   0  0  0  0  0  0  0  0  0  0  0  0
   35.6310   47.5620    6.6700 C   0  0  2  0  0  0  0  0  0  0  0  0
   34.6170   47.7870    5.6000 C   0  0  0  0  0  0  0  0  0  0  0  0
   34.6400   49.1740    5.2450 N   0  0  0  0  0  0  0  0  0  0  0  0
   33.8560   46.9260    5.0790 O   0  0  0  0  0  0  0  0  0  0  0  0
   35.6100   49.8430    6.0390 C   0  0  0  0  0  0  0  0  0  0  0  0
   34.0540   49.6120    4.5350 H   0  0  0  0  0  0  0  0  0  0  0  0
   36.2110   48.9310    6.8920 C   0  0  0  0  0  0  0  0  0  0  0  0
   35.9630   51.1790    6.0310 C   0  0  0  0  0  0  0  0  0  0  0  0
   37.1830   49.4430    7.7300 C   0  0  0  0  0  0  0  0  0  0  0  0
   37.5430   50.7790    7.7290 C   0  0  0  0  0  0  0  0  0  0  0  0
   36.9350   51.6750    6.8750 C   0  0  0  0  0  0  0  0  0  0  0  0
   37.3340   53.0720    6.8940 C   0  0  0  0  0  0  0  0  0  0  0  0
   37.8550   53.5490    7.9220 O   0  0  0  0  0  0  0  0  0  0  0  0
   37.1010   53.8100    5.7290 O   0  0  0  0  0  0  0  0  0  0  0  0
   38.2270   54.2690    4.9790 C   0  0  0  0  0  0  0  0  0  0  0  0
   37.7200   47.0870    5.2790 C   0  0  0  0  0  0  0  0  0  0  0  0
   37.3970   47.3650    3.9650 C   0  0  0  0  0  0  0  0  0  0  0  0
   38.3660   47.7940    3.0960 C   0  0  0  0  0  0  0  0  0  0  0  0
   39.6570   47.9530    3.5100 C   0  0  0  0  0  0  0  0  0  0  0  0
   39.9650   47.6740    4.8130 C   0  0  0  0  0  0  0  0  0  0  0  0
   39.0180   47.2410    5.7150 C   0  0  0  0  0  0  0  0  0  0  0  0
   35.5830   44.8930    7.4310 C   0  0  0  0  0  0  0  0  0  0  0  0
   34.7160   43.9440    6.8860 C   0  0  0  0  0  0  0  0  0  0  0  0
   33.6980   43.4540    7.6570 C   0  0  0  0  0  0  0  0  0  0  0  0
   33.4900   43.8670    8.9670 C   0  0  0  0  0  0  0  0  0  0  0  0
   34.3720   44.8040    9.4550 C   0  0  0  0  0  0  0  0  0  0  0  0
   35.4210   45.3400    8.7330 C   0  0  0  0  0  0  0  0  0  0  0  0
   32.4250   43.3230    9.7640 N   0  0  0  0  0  0  0  0  0  0  0  0
   32.8120   42.6800   11.0000 C   0  0  0  0  0  0  0  0  0  0  0  0
   31.0970   43.4420    9.3000 C   0  0  0  0  0  0  0  0  0  0  0  0
   30.1860   43.0850   10.1280 O   0  0  0  0  0  0  0  0  0  0  0  0
   30.6620   43.9220    7.9990 C   0  0  0  0  0  0  0  0  0  0  0  0
   30.1700   45.2380    7.9040 N   0  0  0  0  0  0  0  0  0  0  0  0
   28.8510   45.4910    8.3960 C   0  0  0  0  0  0  0  0  0  0  0  0
   28.8940   46.8570    9.0860 C   0  0  0  0  0  0  0  0  0  0  0  0
   29.1950   47.9000    8.1070 N   0  0  0  0  0  0  0  0  0  0  0  0
   28.1280   48.0130    7.1290 C   0  0  0  0  0  0  0  0  0  0  0  0
   30.4270   47.5650    7.4110 C   0  0  0  0  0  0  0  0  0  0  0  0
   31.0690   46.3220    8.0120 C   0  0  0  0  0  0  0  0  0  0  0  0
   35.2048   47.1243    7.5485 H   0  0  0  0  0  0  0  0  0  0  0  0
   35.4879   51.8213    5.3777 H   0  0  0  0  0  0  0  0  0  0  0  0
   37.6601   48.8025    8.3836 H   0  0  0  0  0  0  0  0  0  0  0  0
   38.2762   51.1093    8.3759 H   0  0  0  0  0  0  0  0  0  0  0  0
   37.8873   54.8135    4.1228 H   0  0  0  0  0  0  0  0  0  0  0  0
   38.8092   53.4298    4.6601 H   0  0  0  0  0  0  0  0  0  0  0  0
   38.8278   54.9075    5.5924 H   0  0  0  0  0  0  0  0  0  0  0  0
   36.4252   47.2495    3.6374 H   0  0  0  0  0  0  0  0  0  0  0  0
   38.1164   47.9995    2.1159 H   0  0  0  0  0  0  0  0  0  0  0  0
   40.3849   48.2767    2.8540 H   0  0  0  0  0  0  0  0  0  0  0  0
   40.9396   47.7918    5.1312 H   0  0  0  0  0  0  0  0  0  0  0  0
   39.2745   47.0369    6.6936 H   0  0  0  0  0  0  0  0  0  0  0  0
   34.8414   43.6169    5.9153 H   0  0  0  0  0  0  0  0  0  0  0  0
   33.0608   42.7514    7.2505 H   0  0  0  0  0  0  0  0  0  0  0  0
   34.2410   45.1282   10.4259 H   0  0  0  0  0  0  0  0  0  0  0  0
   36.0557   46.0419    9.1448 H   0  0  0  0  0  0  0  0  0  0  0  0
   33.8752   42.7292   11.1100 H   0  0  0  0  0  0  0  0  0  0  0  0
   32.5024   41.6559   10.9815 H   0  0  0  0  0  0  0  0  0  0  0  0
   32.3448   43.1790   11.8232 H   0  0  0  0  0  0  0  0  0  0  0  0
   31.4999   43.8484    7.3376 H   0  0  0  0  0  0  0  0  0  0  0  0
   29.8201   43.3070    7.7583 H   0  0  0  0  0  0  0  0  0  0  0  0
   28.5666   44.7331    9.0957 H   0  0  0  0  0  0  0  0  0  0  0  0
   28.1353   45.4837    7.6006 H   0  0  0  0  0  0  0  0  0  0  0  0
   27.9443   47.0569    9.5366 H   0  0  0  0  0  0  0  0  0  0  0  0
   29.6562   46.8484    9.8369 H   0  0  0  0  0  0  0  0  0  0  0  0
   28.3700   48.7810    6.4243 H   0  0  0  0  0  0  0  0  0  0  0  0
   27.2133   48.2604    7.6260 H   0  0  0  0  0  0  0  0  0  0  0  0
   28.0143   47.0810    6.6159 H   0  0  0  0  0  0  0  0  0  0  0  0
   30.2084   47.3827    6.3796 H   0  0  0  0  0  0  0  0  0  0  0  0
   31.1089   48.3837    7.5091 H   0  0  0  0  0  0  0  0  0  0  0  0
   31.2950   46.4985    9.0429 H   0  0  0  0  0  0  0  0  0  0  0  0
   31.9728   46.0938    7.4867 H   0  0  0  0  0  0  0  0  0  0  0  0
  1  4  1  0  0  0  0
  1  2  2  0  0  0  0
  2 25  1  0  0  0  0
  3  2  1  0  0  0  0
  4 10  1  0  0  0  0
  4 43  1  1  0  0  0
  5  4  1  0  0  0  0
  6  5  1  0  0  0  0
  6  8  1  0  0  0  0
  7  5  2  0  0  0  0
  8 10  1  0  0  0  0
  9  6  1  0  0  0  0
 10 12  2  0  0  0  0
 11  8  2  0  0  0  0
 11 14  1  0  0  0  0
 11 44  1  0  0  0  0
 12 45  1  0  0  0  0
 13 12  1  0  0  0  0
 13 46  1  0  0  0  0
 14 15  1  0  0  0  0
 14 13  2  0  0  0  0
 15 16  2  0  0  0  0
 17 15  1  0  0  0  0
 18 17  1  0  0  0  0
 18 47  1  0  0  0  0
 18 48  1  0  0  0  0
 18 49  1  0  0  0  0
 19 24  1  0  0  0  0
 19  1  1  0  0  0  0
 20 19  2  0  0  0  0
 20 50  1  0  0  0  0
 21 22  2  0  0  0  0
 21 20  1  0  0  0  0
 21 51  1  0  0  0  0
 22 23  1  0  0  0  0
 22 52  1  0  0  0  0
 23 24  2  0  0  0  0
 23 53  1  0  0  0  0
 24 54  1  0  0  0  0
 25 30  1  0  0  0  0
 26 25  2  0  0  0  0
 26 27  1  0  0  0  0
 26 55  1  0  0  0  0
 27 28  2  0  0  0  0
 27 56  1  0  0  0  0
 28 29  1  0  0  0  0
 28 31  1  0  0  0  0
 29 57  1  0  0  0  0
 30 29  2  0  0  0  0
 30 58  1  0  0  0  0
 31 32  1  0  0  0  0
 32 59  1  0  0  0  0
 32 60  1  0  0  0  0
 32 61  1  0  0  0  0
 33 31  1  0  0  0  0
 33 34  2  0  0  0  0
 35 33  1  0  0  0  0
 35 62  1  0  0  0  0
 35 63  1  0  0  0  0
 36 35  1  0  0  0  0
 36 42  1  0  0  0  0
 36 37  1  0  0  0  0
 37 38  1  0  0  0  0
 37 64  1  0  0  0  0
 37 65  1  0  0  0  0
 38 66  1  0  0  0  0
 38 67  1  0  0  0  0
 39 38  1  0  0  0  0
 40 39  1  0  0  0  0
 40 68  1  0  0  0  0
 40 69  1  0  0  0  0
 40 70  1  0  0  0  0
 41 42  1  0  0  0  0
 41 39  1  0  0  0  0
 41 71  1  0  0  0  0
 41 72  1  0  0  0  0
 42 73  1  0  0  0  0
 42 74  1  0  0  0  0
M  END
>  <REMARK>
 VINA RESULT:      -6.7      3.365      7.340
  8 active torsions:
  status: ('A' for Active; 'I' for Inactive)
    1  A    between atoms: O_2  and  C_3 
    2  A    between atoms: C_3  and  C_5 
    3  A    between atoms: C_15  and  C_16 
    4  A    between atoms: C_16  and  C_37 
    5  A    between atoms: N_17  and  C_19 
    6  A    between atoms: C_22  and  N_23 
       I    between atoms: N_23  and  C_25 
    7  A    between atoms: C_25  and  C_27 
    8  A    between atoms: C_27  and  N_28 

>  <TORSDO>
F 8

$$$$
resistance_project/docking/5319283d3047ac55/Q9UM73_L1196M/docked/molecule_0009_out.pdbqt
 OpenBabel09232609193D

 74 78  0  0  1  0  0  0  0  0999 V2000
   35.5110   47.5690    5.7290 C   0  0  0  0  0  0  0  0  0  0  0  0
   35.4150   48.2640    4.6490 N   0  0  0  0  0  0  0  0  0  0  0  0
   35.8510   47.8850    3.8080 H   0  0  0  0  0  0  0  0  0  0  0  0
   34.6800   48.0280    6.8830 C   0  0  2  0  0  0  0  0  0  0  0  0
   35.5060   48.1980    8.1140 C   0  0  0  0  0  0  0  0  0  0  0  0
   35.0320   47.2770    9.1020 N   0  0  0  0  0  0  0  0  0  0  0  0
   36.4610   49.0040    8.2840 O   0  0  0  0  0  0  0  0  0  0  0  0
   33.9440   46.5370    8.5670 C   0  0  0  0  0  0  0  0  0  0  0  0
   35.4150   47.1690   10.0410 H   0  0  0  0  0  0  0  0  0  0  0  0
   33.7040   46.9520    7.2670 C   0  0  0  0  0  0  0  0  0  0  0  0
   33.1900   45.5480    9.1700 C   0  0  0  0  0  0  0  0  0  0  0  0
   32.6650   46.3140    6.6150 C   0  0  0  0  0  0  0  0  0  0  0  0
   31.9060   45.3230    7.2100 C   0  0  0  0  0  0  0  0  0  0  0  0
   32.1560   44.9210    8.5060 C   0  0  0  0  0  0  0  0  0  0  0  0
   31.3430   43.8770    9.1050 C   0  0  0  0  0  0  0  0  0  0  0  0
   31.8690   43.0570    9.8840 O   0  0  0  0  0  0  0  0  0  0  0  0
   29.9880   43.8570    8.7580 O   0  0  0  0  0  0  0  0  0  0  0  0
   29.0870   44.6900    9.4890 C   0  0  0  0  0  0  0  0  0  0  0  0
   36.3700   46.4010    5.8720 C   0  0  0  0  0  0  0  0  0  0  0  0
   37.6780   46.5330    6.2970 C   0  0  0  0  0  0  0  0  0  0  0  0
   38.4740   45.4250    6.4220 C   0  0  0  0  0  0  0  0  0  0  0  0
   37.9920   44.1810    6.1320 C   0  0  0  0  0  0  0  0  0  0  0  0
   36.6960   44.0630    5.7120 C   0  0  0  0  0  0  0  0  0  0  0  0
   35.8670   45.1540    5.5740 C   0  0  0  0  0  0  0  0  0  0  0  0
   34.7610   49.5050    4.5350 C   0  0  0  0  0  0  0  0  0  0  0  0
   35.2940   50.6720    5.0880 C   0  0  0  0  0  0  0  0  0  0  0  0
   34.6130   51.8490    4.9370 C   0  0  0  0  0  0  0  0  0  0  0  0
   33.4070   51.9300    4.2540 C   0  0  0  0  0  0  0  0  0  0  0  0
   32.9260   50.7520    3.7300 C   0  0  0  0  0  0  0  0  0  0  0  0
   33.5600   49.5290    3.8440 C   0  0  0  0  0  0  0  0  0  0  0  0
   32.7190   53.1820    4.0920 N   0  0  0  0  0  0  0  0  0  0  0  0
   33.2110   54.0540    3.0490 C   0  0  0  0  0  0  0  0  0  0  0  0
   31.6350   53.4800    4.9460 C   0  0  0  0  0  0  0  0  0  0  0  0
   30.9660   54.5320    4.6470 O   0  0  0  0  0  0  0  0  0  0  0  0
   31.2040   52.7270    6.1130 C   0  0  0  0  0  0  0  0  0  0  0  0
   29.9240   52.1420    6.0930 N   0  0  0  0  0  0  0  0  0  0  0  0
   28.8920   52.7760    6.8530 C   0  0  0  0  0  0  0  0  0  0  0  0
   27.6120   52.6820    6.0190 C   0  0  0  0  0  0  0  0  0  0  0  0
   27.2250   51.2820    5.8560 N   0  0  0  0  0  0  0  0  0  0  0  0
   26.8790   50.6890    7.1350 C   0  0  0  0  0  0  0  0  0  0  0  0
   28.3410   50.5380    5.2900 C   0  0  0  0  0  0  0  0  0  0  0  0
   29.4870   51.4730    4.9280 C   0  0  0  0  0  0  0  0  0  0  0  0
   34.2176   48.9418    6.5732 H   0  0  0  0  0  0  0  0  0  0  0  0
   33.4058   45.2718   10.1407 H   0  0  0  0  0  0  0  0  0  0  0  0
   32.4470   46.5887    5.6444 H   0  0  0  0  0  0  0  0  0  0  0  0
   31.1422   44.8780    6.6774 H   0  0  0  0  0  0  0  0  0  0  0  0
   28.0953   44.5634    9.1078 H   0  0  0  0  0  0  0  0  0  0  0  0
   29.3818   45.7131    9.3834 H   0  0  0  0  0  0  0  0  0  0  0  0
   29.1090   44.4175   10.5235 H   0  0  0  0  0  0  0  0  0  0  0  0
   38.0557   47.4670    6.5205 H   0  0  0  0  0  0  0  0  0  0  0  0
   39.4501   45.5320    6.7393 H   0  0  0  0  0  0  0  0  0  0  0  0
   38.5929   43.3475    6.2277 H   0  0  0  0  0  0  0  0  0  0  0  0
   36.3268   43.1250    5.4910 H   0  0  0  0  0  0  0  0  0  0  0  0
   34.8922   45.0399    5.2549 H   0  0  0  0  0  0  0  0  0  0  0  0
   36.1881   50.6466    5.6027 H   0  0  0  0  0  0  0  0  0  0  0  0
   35.0107   52.7089    5.3462 H   0  0  0  0  0  0  0  0  0  0  0  0
   32.0311   50.7838    3.2170 H   0  0  0  0  0  0  0  0  0  0  0  0
   33.1571   48.6724    3.4330 H   0  0  0  0  0  0  0  0  0  0  0  0
   34.0370   53.5874    2.5541 H   0  0  0  0  0  0  0  0  0  0  0  0
   33.5301   54.9802    3.4794 H   0  0  0  0  0  0  0  0  0  0  0  0
   32.4301   54.2398    2.3415 H   0  0  0  0  0  0  0  0  0  0  0  0
   31.2349   53.3935    6.9495 H   0  0  0  0  0  0  0  0  0  0  0  0
   31.8748   51.8944    6.1531 H   0  0  0  0  0  0  0  0  0  0  0  0
   28.7607   52.2731    7.7883 H   0  0  0  0  0  0  0  0  0  0  0  0
   29.1401   53.7951    7.0645 H   0  0  0  0  0  0  0  0  0  0  0  0
   26.8258   53.2118    6.5151 H   0  0  0  0  0  0  0  0  0  0  0  0
   27.7874   53.1130    5.0555 H   0  0  0  0  0  0  0  0  0  0  0  0
   26.5998   49.6663    6.9901 H   0  0  0  0  0  0  0  0  0  0  0  0
   26.0595   51.2248    7.5665 H   0  0  0  0  0  0  0  0  0  0  0  0
   27.7227   50.7388    7.7912 H   0  0  0  0  0  0  0  0  0  0  0  0
   28.6853   49.8226    6.0073 H   0  0  0  0  0  0  0  0  0  0  0  0
   28.0079   50.0440    4.4012 H   0  0  0  0  0  0  0  0  0  0  0  0
   29.1508   52.1897    4.2082 H   0  0  0  0  0  0  0  0  0  0  0  0
   30.2952   50.9082    4.5123 H   0  0  0  0  0  0  0  0  0  0  0  0
  1 19  1  0  0  0  0
  1  4  1  0  0  0  0
  2  1  2  0  0  0  0
  3  2  1  0  0  0  0
  4 10  1  0  0  0  0
  4  5  1  0  0  0  0
  4 43  1  6  0  0  0
  5  7  2  0  0  0  0
  5  6  1  0  0  0  0
  6  9  1  0  0  0  0
  8  6  1  0  0  0  0
  8 11  1  0  0  0  0
 10  8  2  0  0  0  0
 11 44  1  0  0  0  0
 12 13  2  0  0  0  0
 12 10  1  0  0  0  0
 12 45  1  0  0  0  0
 13 14  1  0  0  0  0
 13 46  1  0  0  0  0
 14 15  1  0  0  0  0
 14 11  2  0  0  0  0
 15 16  2  0  0  0  0
 17 15  1  0  0  0  0
 17 18  1  0  0  0  0
 18 47  1  0  0  0  0
 18 48  1  0  0  0  0
 18 49  1  0  0  0  0
 19 20  2  0  0  0  0
 20 21  1  0  0  0  0
 20 50  1  0  0  0  0
 21 51  1  0  0  0  0
 22 21  2  0  0  0  0
 22 52  1  0  0  0  0
 23 22  1  0  0  0  0
 23 53  1  0  0  0  0
 24 23  2  0  0  0  0
 24 19  1  0  0  0  0
 24 54  1  0  0  0  0
 25  2  1  0  0  0  0
 25 26  2  0  0  0  0
 26 55  1  0  0  0  0
 27 26  1  0  0  0  0
 27 56  1  0  0  0  0
 28 27  2  0  0  0  0
 29 30  2  0  0  0  0
 29 28  1  0  0  0  0
 29 57  1  0  0  0  0
 30 25  1  0  0  0  0
 30 58  1  0  0  0  0
 31 28  1  0  0  0  0
 31 33  1  0  0  0  0
 32 31  1  0  0  0  0
 32 59  1  0  0  0  0
 32 60  1  0  0  0  0
 32 61  1  0  0  0  0
 33 35  1  0  0  0  0
 34 33  2  0  0  0  0
 35 62  1  0  0  0  0
 35 63  1  0  0  0  0
 36 35  1  0  0  0  0
 36 37  1  0  0  0  0
 37 64  1  0  0  0  0
 37 65  1  0  0  0  0
 38 37  1  0  0  0  0
 38 66  1  0  0  0  0
 38 67  1  0  0  0  0
 39 38  1  0  0  0  0
 39 40  1  0  0  0  0
 40 68  1  0  0  0  0
 40 69  1  0  0  0  0
 40 70  1  0  0  0  0
 41 39  1  0  0  0  0
 41 71  1  0  0  0  0
 41 72  1  0  0  0  0
 42 41  1  0  0  0  0
 42 36  1  0  0  0  0
 42 73  1  0  0  0  0
 42 74  1  0  0  0  0
M  END
>  <REMARK>
 VINA RESULT:      -6.6      3.057      4.740
  8 active torsions:
  status: ('A' for Active; 'I' for Inactive)
    1  A    between atoms: O_2  and  C_3 
    2  A    between atoms: C_3  and  C_5 
    3  A    between atoms: C_15  and  C_16 
    4  A    between atoms: C_16  and  C_37 
    5  A    between atoms: N_17  and  C_19 
    6  A    between atoms: C_22  and  N_23 
       I    between atoms: N_23  and  C_25 
    7  A    between atoms: C_25  and  C_27 
    8  A    between atoms: C_27  and  N_28 

>  <TORSDO>
F 8

$$$$
