resistance_project/docking/5319283d3047ac55/Q9UM73_L1196M/docked/molecule_0010_out.pdbqt
 OpenBabel09232609193D

 60 64  0  0  1  0  0  0  0  0999 V2000
   29.0420   45.4310    8.8410 C   0  0  2  0  0  0  0  0  0  0  0  0
   30.2220   44.8980    8.3760 C   0  0  0  0  0  0  0  0  0  0  0  0
   30.7740   43.7380    8.9110 C   0  0  0  0  0  0  0  0  0  0  0  0
   30.1500   43.0970    9.9150 N   0  0  0  0  0  0  0  0  0  0  0  0
   30.5470   42.2460   10.3130 H   0  0  0  0  0  0  0  0  0  0  0  0
   28.9860   43.6010   10.3920 C   0  0  0  0  0  0  0  0  0  0  0  0
   28.4150   44.7540    9.8780 C   0  0  0  0  0  0  0  0  0  0  0  0
   28.4900   46.6500    8.2570 C   0  0  0  0  0  0  0  0  0  0  0  0
   29.2760   47.7060    7.8450 C   0  0  0  0  0  0  0  0  0  0  0  0
   28.7870   48.8330    7.3070 N   0  0  0  0  0  0  0  0  0  0  0  0
   27.4540   48.9460    7.1580 C   0  0  0  0  0  0  0  0  0  0  0  0
   29.4110   49.5870    7.0180 H   0  0  0  0  0  0  0  0  0  0  0  0
   26.9300   50.1110    6.6000 C   0  0  0  0  0  0  0  0  0  0  0  0
   26.6000   47.9200    7.5510 C   0  0  0  0  0  0  0  0  0  0  0  0
   25.5520   50.2210    6.4480 C   0  0  0  0  0  0  0  0  0  0  0  0
   24.6960   49.2010    6.8390 C   0  0  0  0  0  0  0  0  0  0  0  0
   24.7830   51.7830    5.6960 Br  0  0  0  0  0  0  0  0  0  0  0  0
   25.2260   48.0340    7.3990 C   0  0  0  0  0  0  0  0  0  0  0  0
   27.1350   46.7710    8.1030 C   0  0  0  0  0  0  0  0  0  0  0  0
   30.6530   47.6200    7.9860 O   0  0  0  0  0  0  0  0  0  0  0  0
   31.5340   48.6490    7.6120 C   0  0  0  0  0  0  0  0  0  0  0  0
   32.8680   48.1090    7.2130 C   0  0  0  0  0  0  0  0  0  0  0  0
   33.9370   48.6300    7.5920 O   0  0  0  0  0  0  0  0  0  0  0  0
   32.8520   46.9850    6.3890 O   0  0  0  0  0  0  0  0  0  0  0  0
   31.9970   43.2990    8.3380 N   0  0  0  0  0  0  0  0  0  0  0  0
   31.9930   42.3870    7.8820 H   0  0  0  0  0  0  0  0  0  0  0  0
   33.2090   44.0030    8.3430 C   0  0  0  0  0  0  0  0  0  0  0  0
   34.1190   43.7720    7.3070 C   0  0  0  0  0  0  0  0  0  0  0  0
   35.3320   44.4440    7.2680 C   0  0  0  0  0  0  0  0  0  0  0  0
   35.6730   45.3460    8.2350 C   0  0  0  0  0  0  0  0  0  0  0  0
   34.8050   45.5890    9.2540 C   0  0  0  0  0  0  0  0  0  0  0  0
   33.5850   44.9210    9.3030 C   0  0  0  0  0  0  0  0  0  0  0  0
   36.9230   46.0110    8.1550 N   0  0  0  0  0  0  0  0  0  0  0  0
   37.1450   47.1570    7.2640 C   0  0  0  0  0  0  0  0  0  0  0  0
   38.3720   46.7540    6.4380 C   0  0  0  0  0  0  0  0  0  0  0  0
   39.4430   46.6900    7.3090 O   0  0  0  0  0  0  0  0  0  0  0  0
   39.3720   45.6970    8.2540 C   0  0  0  0  0  0  0  0  0  0  0  0
   38.0530   45.5860    8.9580 C   0  0  0  0  0  0  0  0  0  0  0  0
   30.7144   45.3745    7.6044 H   0  0  0  0  0  0  0  0  0  0  0  0
   28.5089   43.1096   11.1639 H   0  0  0  0  0  0  0  0  0  0  0  0
   27.5263   45.1084   10.2649 H   0  0  0  0  0  0  0  0  0  0  0  0
   27.5537   50.8784    6.3049 H   0  0  0  0  0  0  0  0  0  0  0  0
   23.6762   49.3028    6.7175 H   0  0  0  0  0  0  0  0  0  0  0  0
   24.6023   47.2671    7.6955 H   0  0  0  0  0  0  0  0  0  0  0  0
   26.8209   45.9564    7.4844 H   0  0  0  0  0  0  0  0  0  0  0  0
   31.1138   49.1833    6.7856 H   0  0  0  0  0  0  0  0  0  0  0  0
   31.6715   49.2957    8.4533 H   0  0  0  0  0  0  0  0  0  0  0  0
   33.9194   49.3855    8.1459 H   0  0  0  0  0  0  0  0  0  0  0  0
   33.8860   43.0948    6.5639 H   0  0  0  0  0  0  0  0  0  0  0  0
   35.9889   44.2588    6.4939 H   0  0  0  0  0  0  0  0  0  0  0  0
   35.0512   46.2686    9.9906 H   0  0  0  0  0  0  0  0  0  0  0  0
   32.9395   45.1187   10.0836 H   0  0  0  0  0  0  0  0  0  0  0  0
   36.2968   47.3167    6.6316 H   0  0  0  0  0  0  0  0  0  0  0  0
   37.2919   48.0718    7.7993 H   0  0  0  0  0  0  0  0  0  0  0  0
   38.5594   47.4840    5.6784 H   0  0  0  0  0  0  0  0  0  0  0  0
   38.2150   45.8115    5.9565 H   0  0  0  0  0  0  0  0  0  0  0  0
   40.1262   45.8841    8.9896 H   0  0  0  0  0  0  0  0  0  0  0  0
   39.5099   44.7745    7.7296 H   0  0  0  0  0  0  0  0  0  0  0  0
   37.9039   44.5635    9.2356 H   0  0  0  0  0  0  0  0  0  0  0  0
   38.0961   46.2385    9.8050 H   0  0  0  0  0  0  0  0  0  0  0  0
  1  8  1  6  0  0  0
  1  7  1  0  0  0  0
  2  1  1  0  0  0  0
  2  3  2  0  0  0  0
  2 39  1  0  0  0  0
  3  4  1  0  0  0  0
  4  5  1  0  0  0  0
  4  6  1  0  0  0  0
  6 40  1  0  0  0  0
  7  6  2  0  0  0  0
  7 41  1  0  0  0  0
  9 20  1  0  0  0  0
  9  8  2  0  0  0  0
 10  9  1  0  0  0  0
 11 10  1  0  0  0  0
 11 14  2  0  0  0  0
 12 10  1  0  0  0  0
 13 11  1  0  0  0  0
 13 42  1  0  0  0  0
 14 19  1  0  0  0  0
 15 13  2  0  0  0  0
 15 16  1  0  0  0  0
 16 18  2  0  0  0  0
 16 43  1  0  0  0  0
 17 15  1  0  0  0  0
 18 14  1  0  0  0  0
 18 44  1  0  0  0  0
 19  8  1  0  0  0  0
 19 45  1  0  0  0  0
 21 20  1  0  0  0  0
 21 46  1  0  0  0  0
 21 47  1  0  0  0  0
 22 23  1  0  0  0  0
 22 21  1  0  0  0  0
 23 48  1  0  0  0  0
 24 22  2  0  0  0  0
 25 27  1  0  0  0  0
 25  3  1  0  0  0  0
 26 25  1  0  0  0  0
 27 32  2  0  0  0  0
 28 27  1  0  0  0  0
 28 49  1  0  0  0  0
 29 28  2  0  0  0  0
 29 30  1  0  0  0  0
 29 50  1  0  0  0  0
 30 31  2  0  0  0  0
 31 32  1  0  0  0  0
 31 51  1  0  0  0  0
 32 52  1  0  0  0  0
 33 30  1  0  0  0  0
 33 38  1  0  0  0  0
 34 33  1  0  0  0  0
 34 53  1  0  0  0  0
 34 54  1  0  0  0  0
 35 34  1  0  0  0  0
 35 36  1  0  0  0  0
 35 55  1  0  0  0  0
 35 56  1  0  0  0  0
 36 37  1  0  0  0  0
 37 38  1  0  0  0  0
 37 57  1  0  0  0  0
 37 58  1  0  0  0  0
 38 59  1  0  0  0  0
 38 60  1  0  0  0  0
M  END
>  <MODEL>
1

>  <REMARK>
 VINA RESULT:      -8.3      0.000      0.000
  7 active torsions:
  status: ('A' for Active; 'I' for Inactive)
    1  A    between atoms: C_2  and  C_4 
    2  A    between atoms: C_4  and  O_5 
    3  A    between atoms: O_5  and  C_6 
    4  A    between atoms: C_7  and  C_8 
    5  A    between atoms: C_10  and  N_11 
    6  A    between atoms: N_11  and  C_13 
    7  A    between atoms: C_16  and  N_17 

>  <TORSDO>
F 7

$$$$
resistance_project/docking/5319283d3047ac55/Q9UM73_L1196M/docked/molecule_0010_out.pdbqt
 OpenBabel09232609193D

 60 64  0  0  1  0  0  0  0  0999 V2000
   28.9800   45.6440    8.6610 C   0  0  2  0  0  0  0  0  0  0  0  0
   30.2130   45.2340    8.2080 C   0  0  0  0  0  0  0  0  0  0  0  0
   30.8600   44.1170    8.7270 C   0  0  0  0  0  0  0  0  0  0  0  0
   30.2820   43.3980    9.7050 N   0  0  0  0  0  0  0  0  0  0  0  0
   30.7500   42.5780   10.0920 H   0  0  0  0  0  0  0  0  0  0  0  0
   29.0680   43.7800   10.1700 C   0  0  0  0  0  0  0  0  0  0  0  0
   28.4010   44.8870    9.6710 C   0  0  0  0  0  0  0  0  0  0  0  0
   28.3270   46.8200    8.0940 C   0  0  0  0  0  0  0  0  0  0  0  0
   29.0270   47.9020    7.6030 C   0  0  0  0  0  0  0  0  0  0  0  0
   28.4450   48.9900    7.0780 N   0  0  0  0  0  0  0  0  0  0  0  0
   27.1010   49.0360    7.0250 C   0  0  0  0  0  0  0  0  0  0  0  0
   29.0080   49.7650    6.7280 H   0  0  0  0  0  0  0  0  0  0  0  0
   26.4810   50.1600    6.4830 C   0  0  0  0  0  0  0  0  0  0  0  0
   26.3300   47.9790    7.5030 C   0  0  0  0  0  0  0  0  0  0  0  0
   25.0910   50.2000    6.4310 C   0  0  0  0  0  0  0  0  0  0  0  0
   24.3180   49.1500    6.9060 C   0  0  0  0  0  0  0  0  0  0  0  0
   24.1930   51.7030    5.7050 Br  0  0  0  0  0  0  0  0  0  0  0  0
   24.9450   48.0230    7.4500 C   0  0  0  0  0  0  0  0  0  0  0  0
   26.9600   46.8720    8.0370 C   0  0  0  0  0  0  0  0  0  0  0  0
   30.4140   47.8860    7.6430 O   0  0  0  0  0  0  0  0  0  0  0  0
   31.2210   48.6890    6.8200 C   0  0  0  0  0  0  0  0  0  0  0  0
   31.9360   47.8760    5.7930 C   0  0  0  0  0  0  0  0  0  0  0  0
   31.5250   46.7560    5.4260 O   0  0  0  0  0  0  0  0  0  0  0  0
   33.0950   48.4410    5.2620 O   0  0  0  0  0  0  0  0  0  0  0  0
   32.1290   43.8070    8.1680 N   0  0  0  0  0  0  0  0  0  0  0  0
   32.3140   42.8270    7.9560 H   0  0  0  0  0  0  0  0  0  0  0  0
   33.1500   44.7240    7.8820 C   0  0  0  0  0  0  0  0  0  0  0  0
   33.3390   45.8050    8.7490 C   0  0  0  0  0  0  0  0  0  0  0  0
   34.3360   46.7390    8.5090 C   0  0  0  0  0  0  0  0  0  0  0  0
   35.1590   46.6320    7.4240 C   0  0  0  0  0  0  0  0  0  0  0  0
   34.9970   45.5900    6.5650 C   0  0  0  0  0  0  0  0  0  0  0  0
   33.9990   44.6470    6.7970 C   0  0  0  0  0  0  0  0  0  0  0  0
   36.1660   47.6090    7.2180 N   0  0  0  0  0  0  0  0  0  0  0  0
   37.5440   47.2510    6.8580 C   0  0  0  0  0  0  0  0  0  0  0  0
   38.4000   47.9550    7.9170 C   0  0  0  0  0  0  0  0  0  0  0  0
   38.2570   49.3150    7.7140 O   0  0  0  0  0  0  0  0  0  0  0  0
   37.0020   49.8150    7.9540 C   0  0  0  0  0  0  0  0  0  0  0  0
   35.8790   49.0240    7.3530 C   0  0  0  0  0  0  0  0  0  0  0  0
   30.6733   45.7732    7.4581 H   0  0  0  0  0  0  0  0  0  0  0  0
   28.6254   43.2278   10.9211 H   0  0  0  0  0  0  0  0  0  0  0  0
   27.4768   45.1482   10.0487 H   0  0  0  0  0  0  0  0  0  0  0  0
   27.0427   50.9489    6.1264 H   0  0  0  0  0  0  0  0  0  0  0  0
   23.2883   49.1997    6.8585 H   0  0  0  0  0  0  0  0  0  0  0  0
   24.3834   47.2344    7.8073 H   0  0  0  0  0  0  0  0  0  0  0  0
   26.6432   46.0286    7.4597 H   0  0  0  0  0  0  0  0  0  0  0  0
   30.6041   49.4097    6.3250 H   0  0  0  0  0  0  0  0  0  0  0  0
   31.9522   49.1710    7.4348 H   0  0  0  0  0  0  0  0  0  0  0  0
   30.7431   46.3987    5.7987 H   0  0  0  0  0  0  0  0  0  0  0  0
   32.7304   45.9088    9.5759 H   0  0  0  0  0  0  0  0  0  0  0  0
   34.4582   47.5289    9.1618 H   0  0  0  0  0  0  0  0  0  0  0  0
   35.6131   45.4983    5.7421 H   0  0  0  0  0  0  0  0  0  0  0  0
   33.8906   43.8633    6.1344 H   0  0  0  0  0  0  0  0  0  0  0  0
   37.7850   47.6052    5.8775 H   0  0  0  0  0  0  0  0  0  0  0  0
   37.7023   46.1930    6.8379 H   0  0  0  0  0  0  0  0  0  0  0  0
   39.4263   47.6730    7.8068 H   0  0  0  0  0  0  0  0  0  0  0  0
   38.0883   47.6814    8.9034 H   0  0  0  0  0  0  0  0  0  0  0  0
   36.8549   49.8481    9.0133 H   0  0  0  0  0  0  0  0  0  0  0  0
   36.9704   50.7788    7.4903 H   0  0  0  0  0  0  0  0  0  0  0  0
   35.0166   49.1352    7.9766 H   0  0  0  0  0  0  0  0  0  0  0  0
   35.7227   49.4057    6.3657 H   0  0  0  0  0  0  0  0  0  0  0  0
  1  8  1  6  0  0  0
  1  7  1  0  0  0  0
  2  1  1  0  0  0  0
  2  3  2  0  0  0  0
  2 39  1  0  0  0  0
  3  4  1  0  0  0  0
  4  5  1  0  0  0  0
  4  6  1  0  0  0  0
  6 40  1  0  0  0  0
  7  6  2  0  0  0  0
  7 41  1  0  0  0  0
  9 20  1  0  0  0  0
  9  8  2  0  0  0  0
 10  9  1  0  0  0  0
 11 10  1  0  0  0  0
 11 14  2  0  0  0  0
 12 10  1  0  0  0  0
 13 11  1  0  0  0  0
 13 42  1  0  0  0  0
 14 19  1  0  0  0  0
 15 13  2  0  0  0  0
 15 16  1  0  0  0  0
 16 18  2  0  0  0  0
 16 43  1  0  0  0  0
 17 15  1  0  0  0  0
 18 14  1  0  0  0  0
 18 44  1  0  0  0  0
 19  8  1  0  0  0  0
 19 45  1  0  0  0  0
 21 20  1  0  0  0  0
 21 46  1  0  0  0  0
 21 47  1  0  0  0  0
 22 21  1  0  0  0  0
 23 22  1  0  0  0  0
 23 48  1  0  0  0  0
 24 22  2  0  0  0  0
 25  3  1  0  0  0  0
 26 25  1  0  0  0  0
 27 25  1  0  0  0  0
 27 28  2  0  0  0  0
 28 49  1  0  0  0  0
 29 28  1  0  0  0  0
 29 50  1  0  0  0  0
 30 29  2  0  0  0  0
 31 32  2  0  0  0  0
 31 30  1  0  0  0  0
 31 51  1  0  0  0  0
 32 27  1  0  0  0  0
 32 52  1  0  0  0  0
 33 38  1  0  0  0  0
 33 30  1  0  0  0  0
 34 33  1  0  0  0  0
 34 35  1  0  0  0  0
 34 53  1  0  0  0  0
 34 54  1  0  0  0  0
 35 55  1  0  0  0  0
 35 56  1  0  0  0  0
 36 35  1  0  0  0  0
 36 37  1  0  0  0  0
 37 57  1  0  0  0  0
 37 58  1  0  0  0  0
 38 37  1  0  0  0  0
 38 59  1  0  0  0  0
 38 60  1  0  0  0  0
M  END
>  <REMARK>
 VINA RESULT:      -8.3      1.218      1.805
  7 active torsions:
  status: ('A' for Active; 'I' for Inactive)
    1  A    between atoms: C_2  and  C_4 
    2  A    between atoms: C_4  and  O_5 
    3  A    between atoms: O_5  and  C_6 
    4  A    between atoms: C_7  and  C_8 
    5  A    between atoms: C_10  and  N_11 
    6  A    between atoms: N_11  and  C_13 
    7  A    between atoms: C_16  and  N_17 

>  <TORSDO>
F 7

$$$$
resistance_project/docking/5319283d3047ac55/Q9UM73_L1196M/docked/molecule_0010_out.pdbqt
 OpenBabel09232609193D

 60 64  0  0  1  0  0  0  0  0999 V2000
   30.3510   45.0860    8.5150 C   0  0  2  0  0  0  0  0  0  0  0  0
   29.2540   45.8920    8.3210 C   0  0  0  0  0  0  0  0  0  0  0  0
   28.0640   45.7060    9.0180 C   0  0  0  0  0  0  0  0  0  0  0  0
   27.9590   44.7130    9.9180 N   0  0  0  0  0  0  0  0  0  0  0  0
   27.0910   44.5690   10.4340 H   0  0  0  0  0  0  0  0  0  0  0  0
   29.0260   43.9040   10.1280 C   0  0  0  0  0  0  0  0  0  0  0  0
   30.2220   44.0660    9.4480 C   0  0  0  0  0  0  0  0  0  0  0  0
   31.5850   45.3080    7.7670 C   0  0  0  0  0  0  0  0  0  0  0  0
   32.8370   45.0910    8.3030 C   0  0  0  0  0  0  0  0  0  0  0  0
   33.9800   45.2900    7.6320 N   0  0  0  0  0  0  0  0  0  0  0  0
   33.9090   45.7270    6.3610 C   0  0  0  0  0  0  0  0  0  0  0  0
   34.8830   45.1150    8.0740 H   0  0  0  0  0  0  0  0  0  0  0  0
   35.0890   45.9390    5.6490 C   0  0  0  0  0  0  0  0  0  0  0  0
   32.6790   45.9680    5.7540 C   0  0  0  0  0  0  0  0  0  0  0  0
   35.0080   46.3900    4.3350 C   0  0  0  0  0  0  0  0  0  0  0  0
   33.7840   46.6310    3.7260 C   0  0  0  0  0  0  0  0  0  0  0  0
   36.5790   46.6960    3.3190 Br  0  0  0  0  0  0  0  0  0  0  0  0
   32.6030   46.4180    4.4450 C   0  0  0  0  0  0  0  0  0  0  0  0
   31.5190   45.7530    6.4730 C   0  0  0  0  0  0  0  0  0  0  0  0
   32.9440   44.6410    9.6120 O   0  0  0  0  0  0  0  0  0  0  0  0
   34.1520   44.2100   10.1840 C   0  0  0  0  0  0  0  0  0  0  0  0
   34.9330   45.3540   10.7410 C   0  0  0  0  0  0  0  0  0  0  0  0
   35.6660   46.0690   10.0280 O   0  0  0  0  0  0  0  0  0  0  0  0
   34.7970   45.5800   12.1110 O   0  0  0  0  0  0  0  0  0  0  0  0
   27.0100   46.6100    8.7190 N   0  0  0  0  0  0  0  0  0  0  0  0
   26.1350   46.4850    9.2280 H   0  0  0  0  0  0  0  0  0  0  0  0
   27.0600   47.6560    7.7870 C   0  0  0  0  0  0  0  0  0  0  0  0
   25.8730   48.3210    7.4650 C   0  0  0  0  0  0  0  0  0  0  0  0
   25.8710   49.3630    6.5490 C   0  0  0  0  0  0  0  0  0  0  0  0
   27.0230   49.7670    5.9360 C   0  0  0  0  0  0  0  0  0  0  0  0
   28.1920   49.1370    6.2310 C   0  0  0  0  0  0  0  0  0  0  0  0
   28.2040   48.0910    7.1490 C   0  0  0  0  0  0  0  0  0  0  0  0
   26.9750   50.8370    5.0060 N   0  0  0  0  0  0  0  0  0  0  0  0
   27.7250   50.8110    3.7430 C   0  0  0  0  0  0  0  0  0  0  0  0
   28.5350   52.1130    3.7660 C   0  0  0  0  0  0  0  0  0  0  0  0
   27.6300   53.1550    3.6910 O   0  0  0  0  0  0  0  0  0  0  0  0
   26.8030   53.2910    4.7780 C   0  0  0  0  0  0  0  0  0  0  0  0
   26.1740   52.0180    5.2600 C   0  0  0  0  0  0  0  0  0  0  0  0
   29.3152   46.6608    7.6353 H   0  0  0  0  0  0  0  0  0  0  0  0
   28.9446   43.1411   10.8182 H   0  0  0  0  0  0  0  0  0  0  0  0
   31.0139   43.4310    9.6342 H   0  0  0  0  0  0  0  0  0  0  0  0
   36.0062   45.7645    6.0887 H   0  0  0  0  0  0  0  0  0  0  0  0
   33.7456   46.9648    2.7502 H   0  0  0  0  0  0  0  0  0  0  0  0
   31.6857   46.5939    4.0060 H   0  0  0  0  0  0  0  0  0  0  0  0
   30.9474   45.0315    5.9275 H   0  0  0  0  0  0  0  0  0  0  0  0
   34.7376   43.7222    9.4330 H   0  0  0  0  0  0  0  0  0  0  0  0
   33.9232   43.5384   10.9849 H   0  0  0  0  0  0  0  0  0  0  0  0
   34.2399   45.0281   12.6238 H   0  0  0  0  0  0  0  0  0  0  0  0
   24.9890   48.0337    7.9134 H   0  0  0  0  0  0  0  0  0  0  0  0
   24.9838   49.8412    6.3269 H   0  0  0  0  0  0  0  0  0  0  0  0
   29.0687   49.4342    5.7748 H   0  0  0  0  0  0  0  0  0  0  0  0
   29.0998   47.6242    7.3601 H   0  0  0  0  0  0  0  0  0  0  0  0
   28.3730   49.9605    3.7029 H   0  0  0  0  0  0  0  0  0  0  0  0
   27.0875   50.7375    2.8868 H   0  0  0  0  0  0  0  0  0  0  0  0
   29.0973   52.1796    4.6739 H   0  0  0  0  0  0  0  0  0  0  0  0
   29.2246   52.1474    2.9486 H   0  0  0  0  0  0  0  0  0  0  0  0
   26.0187   53.9698    4.5153 H   0  0  0  0  0  0  0  0  0  0  0  0
   27.4187   53.6421    5.5796 H   0  0  0  0  0  0  0  0  0  0  0  0
   25.2320   51.8993    4.7666 H   0  0  0  0  0  0  0  0  0  0  0  0
   26.0723   52.1032    6.3217 H   0  0  0  0  0  0  0  0  0  0  0  0
  1  8  1  1  0  0  0
  1  7  1  0  0  0  0
  2  1  1  0  0  0  0
  2  3  2  0  0  0  0
  2 39  1  0  0  0  0
  3  4  1  0  0  0  0
  4  6  1  0  0  0  0
  4  5  1  0  0  0  0
  6 40  1  0  0  0  0
  7  6  2  0  0  0  0
  7 41  1  0  0  0  0
  8  9  2  0  0  0  0
  9 20  1  0  0  0  0
 10 12  1  0  0  0  0
 10  9  1  0  0  0  0
 11 10  1  0  0  0  0
 13 11  1  0  0  0  0
 13 42  1  0  0  0  0
 14 11  2  0  0  0  0
 14 19  1  0  0  0  0
 15 13  2  0  0  0  0
 16 15  1  0  0  0  0
 16 18  2  0  0  0  0
 16 43  1  0  0  0  0
 17 15  1  0  0  0  0
 18 14  1  0  0  0  0
 18 44  1  0  0  0  0
 19  8  1  0  0  0  0
 19 45  1  0  0  0  0
 20 21  1  0  0  0  0
 21 22  1  0  0  0  0
 21 46  1  0  0  0  0
 21 47  1  0  0  0  0
 22 24  1  0  0  0  0
 23 22  2  0  0  0  0
 24 48  1  0  0  0  0
 25  3  1  0  0  0  0
 25 26  1  0  0  0  0
 27 25  1  0  0  0  0
 28 27  1  0  0  0  0
 28 49  1  0  0  0  0
 29 28  2  0  0  0  0
 29 50  1  0  0  0  0
 30 31  2  0  0  0  0
 30 29  1  0  0  0  0
 31 32  1  0  0  0  0
 31 51  1  0  0  0  0
 32 27  2  0  0  0  0
 32 52  1  0  0  0  0
 33 38  1  0  0  0  0
 33 30  1  0  0  0  0
 34 35  1  0  0  0  0
 34 33  1  0  0  0  0
 34 53  1  0  0  0  0
 34 54  1  0  0  0  0
 35 55  1  0  0  0  0
 35 56  1  0  0  0  0
 36 35  1  0  0  0  0
 36 37  1  0  0  0  0
 37 38  1  0  0  0  0
 37 57  1  0  0  0  0
 37 58  1  0  0  0  0
 38 59  1  0  0  0  0
 38 60  1  0  0  0  0
M  END
>  <REMARK>
 VINA RESULT:      -7.9      3.574      8.230
  7 active torsions:
  status: ('A' for Active; 'I' for Inactive)
    1  A    between atoms: C_2  and  C_4 
    2  A    between atoms: C_4  and  O_5 
    3  A    between atoms: O_5  and  C_6 
    4  A    between atoms: C_7  and  C_8 
    5  A    between atoms: C_10  and  N_11 
    6  A    between atoms: N_11  and  C_13 
    7  A    between atoms: C_16  and  N_17 

>  <TORSDO>
F 7

$$$$
resistance_project/docking/5319283d3047ac55/Q9UM73_L1196M/docked/molecule_0010_out.pdbqt
 OpenBabel09232609193D

 60 64  0  0  1  0  0  0  0  0999 V2000
   29.0640   50.2050    6.4550 C   0  0  2  0  0  0  0  0  0  0  0  0
   30.1180   49.3520    6.2190 C   0  0  0  0  0  0  0  0  0  0  0  0
   31.4130   49.8140    6.0090 C   0  0  0  0  0  0  0  0  0  0  0  0
   31.6700   51.1340    6.0320 N   0  0  0  0  0  0  0  0  0  0  0  0
   32.6170   51.4820    5.8790 H   0  0  0  0  0  0  0  0  0  0  0  0
   30.6490   51.9960    6.2620 C   0  0  0  0  0  0  0  0  0  0  0  0
   29.3510   51.5630    6.4750 C   0  0  0  0  0  0  0  0  0  0  0  0
   27.7170   49.6880    6.6720 C   0  0  0  0  0  0  0  0  0  0  0  0
   27.4700   48.4240    7.1680 C   0  0  0  0  0  0  0  0  0  0  0  0
   26.2400   47.9320    7.3740 N   0  0  0  0  0  0  0  0  0  0  0  0
   25.1810   48.7100    7.0830 C   0  0  0  0  0  0  0  0  0  0  0  0
   26.1100   46.9890    7.7420 H   0  0  0  0  0  0  0  0  0  0  0  0
   23.8950   48.2130    7.2910 C   0  0  0  0  0  0  0  0  0  0  0  0
   25.3550   49.9960    6.5800 C   0  0  0  0  0  0  0  0  0  0  0  0
   22.8060   49.0230    6.9890 C   0  0  1  0  0  0  0  0  0  0  0  0
   22.9740   50.3060    6.4870 C   0  0  0  0  0  0  0  0  0  0  0  0
   21.0350   48.4000    7.2520 Br  0  0  0  0  0  0  0  0  0  0  0  0
   24.2660   50.8000    6.2790 C   0  0  0  0  0  0  0  0  0  0  0  0
   26.6360   50.4750    6.3780 C   0  0  0  0  0  0  0  0  0  0  0  0
   28.5410   47.5970    7.4770 O   0  0  0  0  0  0  0  0  0  0  0  0
   28.8330   47.1680    8.7810 C   0  0  0  0  0  0  0  0  0  0  0  0
   28.5510   45.7110    8.9540 C   0  0  0  0  0  0  0  0  0  0  0  0
   27.3940   45.2470    8.9030 O   0  0  0  0  0  0  0  0  0  0  0  0
   29.6600   44.8950    9.1770 O   0  0  0  0  0  0  0  0  0  0  0  0
   32.4060   48.8250    5.7770 N   0  0  0  0  0  0  0  0  0  0  0  0
   33.0900   49.0180    5.0460 H   0  0  0  0  0  0  0  0  0  0  0  0
   32.5310   47.6060    6.4590 C   0  0  0  0  0  0  0  0  0  0  0  0
   33.1370   47.6060    7.7180 C   0  0  0  0  0  0  0  0  0  0  0  0
   33.2840   46.4250    8.4320 C   0  0  0  0  0  0  0  0  0  0  0  0
   32.8440   45.2340    7.9290 C   0  0  0  0  0  0  0  0  0  0  0  0
   32.2510   45.2070    6.7040 C   0  0  0  0  0  0  0  0  0  0  0  0
   32.0980   46.3860    5.9800 C   0  0  0  0  0  0  0  0  0  0  0  0
   33.0140   44.0520    8.6930 N   0  0  0  0  0  0  0  0  0  0  0  0
   33.3730   44.0850   10.1170 C   0  0  0  0  0  0  0  0  0  0  0  0
   34.6190   43.1960   10.2070 C   0  0  0  0  0  0  0  0  0  0  0  0
   34.2190   41.9070    9.9080 O   0  0  0  0  0  0  0  0  0  0  0  0
   33.7950   41.7090    8.6180 C   0  0  0  0  0  0  0  0  0  0  0  0
   32.8400   42.7410    8.0990 C   0  0  0  0  0  0  0  0  0  0  0  0
   29.9415   48.3354    6.1971 H   0  0  0  0  0  0  0  0  0  0  0  0
   30.8458   53.0089    6.2789 H   0  0  0  0  0  0  0  0  0  0  0  0
   28.5990   52.2482    6.6482 H   0  0  0  0  0  0  0  0  0  0  0  0
   23.7539   47.2606    7.6626 H   0  0  0  0  0  0  0  0  0  0  0  0
   22.1522   50.8909    6.2689 H   0  0  0  0  0  0  0  0  0  0  0  0
   24.4071   51.7518    5.9059 H   0  0  0  0  0  0  0  0  0  0  0  0
   26.7776   51.4268    6.0052 H   0  0  0  0  0  0  0  0  0  0  0  0
   28.2332   47.7227    9.4720 H   0  0  0  0  0  0  0  0  0  0  0  0
   29.8745   47.3324    8.9633 H   0  0  0  0  0  0  0  0  0  0  0  0
   30.5182   45.2697    9.2106 H   0  0  0  0  0  0  0  0  0  0  0  0
   33.4785   48.4926    8.1208 H   0  0  0  0  0  0  0  0  0  0  0  0
   33.7342   46.4472    9.3604 H   0  0  0  0  0  0  0  0  0  0  0  0
   31.9152   44.3132    6.3124 H   0  0  0  0  0  0  0  0  0  0  0  0
   31.6453   46.3466    5.0534 H   0  0  0  0  0  0  0  0  0  0  0  0
   32.5805   43.6908   10.7181 H   0  0  0  0  0  0  0  0  0  0  0  0
   33.5494   45.0781   10.4740 H   0  0  0  0  0  0  0  0  0  0  0  0
   35.3560   43.5243    9.5042 H   0  0  0  0  0  0  0  0  0  0  0  0
   35.0523   43.2441   11.1842 H   0  0  0  0  0  0  0  0  0  0  0  0
   34.6560   41.7044    7.9827 H   0  0  0  0  0  0  0  0  0  0  0  0
   33.2616   40.7814    8.6179 H   0  0  0  0  0  0  0  0  0  0  0  0
   31.8429   42.4092    8.3004 H   0  0  0  0  0  0  0  0  0  0  0  0
   33.0337   42.8456    7.0519 H   0  0  0  0  0  0  0  0  0  0  0  0
  1  7  1  0  0  0  0
  1  8  1  1  0  0  0
  2  1  1  0  0  0  0
  2 39  1  0  0  0  0
  3  4  1  0  0  0  0
  3  2  2  0  0  0  0
  4  6  1  0  0  0  0
  5  4  1  0  0  0  0
  6  7  2  0  0  0  0
  6 40  1  0  0  0  0
  7 41  1  0  0  0  0
  8  9  2  0  0  0  0
  9 10  1  0  0  0  0
  9 20  1  0  0  0  0
 10 12  1  0  0  0  0
 11 13  2  0  0  0  0
 11 10  1  0  0  0  0
 13 42  1  0  0  0  0
 14 11  1  0  0  0  0
 15 17  1  6  0  0  0
 15 13  1  0  0  0  0
 16 15  1  0  0  0  0
 16 43  1  0  0  0  0
 18 16  2  0  0  0  0
 18 14  1  0  0  0  0
 18 44  1  0  0  0  0
 19 14  2  0  0  0  0
 19  8  1  0  0  0  0
 19 45  1  0  0  0  0
 20 21  1  0  0  0  0
 21 22  1  0  0  0  0
 21 46  1  0  0  0  0
 21 47  1  0  0  0  0
 22 24  1  0  0  0  0
 23 22  2  0  0  0  0
 24 48  1  0  0  0  0
 25  3  1  0  0  0  0
 25 27  1  0  0  0  0
 26 25  1  0  0  0  0
 27 28  1  0  0  0  0
 28 29  2  0  0  0  0
 28 49  1  0  0  0  0
 29 50  1  0  0  0  0
 30 29  1  0  0  0  0
 30 33  1  0  0  0  0
 31 30  2  0  0  0  0
 31 51  1  0  0  0  0
 32 27  2  0  0  0  0
 32 31  1  0  0  0  0
 32 52  1  0  0  0  0
 33 34  1  0  0  0  0
 34 35  1  0  0  0  0
 34 53  1  0  0  0  0
 34 54  1  0  0  0  0
 35 55  1  0  0  0  0
 35 56  1  0  0  0  0
 36 35  1  0  0  0  0
 37 36  1  0  0  0  0
 37 57  1  0  0  0  0
 37 58  1  0  0  0  0
 38 37  1  0  0  0  0
 38 33  1  0  0  0  0
 38 59  1  0  0  0  0
 38 60  1  0  0  0  0
M  END
>  <REMARK>
 VINA RESULT:      -7.9      3.081      5.119
  7 active torsions:
  status: ('A' for Active; 'I' for Inactive)
    1  A    between atoms: C_2  and  C_4 
    2  A    between atoms: C_4  and  O_5 
    3  A    between atoms: O_5  and  C_6 
    4  A    between atoms: C_7  and  C_8 
    5  A    between atoms: C_10  and  N_11 
    6  A    between atoms: N_11  and  C_13 
    7  A    between atoms: C_16  and  N_17 

>  <TORSDO>
F 7

$$$$
resistance_project/docking/5319283d3047ac55/Q9UM73_L1196M/docked/molecule_0010_out.pdbqt
 OpenBabel09232609193D

 60 64  0  0  1  0  0  0  0  0999 V2000
   29.8730   45.9600    7.7160 C   0  0  1  0  0  0  0  0  0  0  0  0
   29.1660   47.1400    7.7320 C   0  0  0  0  0  0  0  0  0  0  0  0
   27.9250   47.2530    8.3520 C   0  0  0  0  0  0  0  0  0  0  0  0
   27.3780   46.1870    8.9630 N   0  0  0  0  0  0  0  0  0  0  0  0
   26.4690   46.2610    9.4200 H   0  0  0  0  0  0  0  0  0  0  0  0
   28.0540   45.0120    8.9610 C   0  0  0  0  0  0  0  0  0  0  0  0
   29.2910   44.8720    8.3520 C   0  0  0  0  0  0  0  0  0  0  0  0
   31.1720   45.8760    7.0560 C   0  0  0  0  0  0  0  0  0  0  0  0
   32.3200   45.4790    7.7100 C   0  0  0  0  0  0  0  0  0  0  0  0
   33.5220   45.3960    7.1210 N   0  0  0  0  0  0  0  0  0  0  0  0
   33.6210   45.7170    5.8180 C   0  0  0  0  0  0  0  0  0  0  0  0
   34.3420   45.0970    7.6490 H   0  0  0  0  0  0  0  0  0  0  0  0
   34.8630   45.6360    5.1910 C   0  0  0  0  0  0  0  0  0  0  0  0
   32.5040   46.1260    5.0940 C   0  0  0  0  0  0  0  0  0  0  0  0
   34.9580   45.9680    3.8430 C   0  0  1  0  0  0  0  0  0  0  0  0
   33.8470   46.3770    3.1180 C   0  0  0  0  0  0  0  0  0  0  0  0
   36.6210   45.8770    2.9390 Br  0  0  0  0  0  0  0  0  0  0  0  0
   32.6020   46.4570    3.7520 C   0  0  0  0  0  0  0  0  0  0  0  0
   31.2790   46.2010    5.7310 C   0  0  0  0  0  0  0  0  0  0  0  0
   32.2520   45.1420    9.0540 O   0  0  0  0  0  0  0  0  0  0  0  0
   32.7860   43.9540    9.5810 C   0  0  0  0  0  0  0  0  0  0  0  0
   34.1420   44.1760   10.1650 C   0  0  0  0  0  0  0  0  0  0  0  0
   34.3070   44.5290   11.3500 O   0  0  0  0  0  0  0  0  0  0  0  0
   35.2200   43.9650    9.3060 O   0  0  0  0  0  0  0  0  0  0  0  0
   27.3040   48.5290    8.2930 N   0  0  0  0  0  0  0  0  0  0  0  0
   27.7050   49.2660    8.8720 H   0  0  0  0  0  0  0  0  0  0  0  0
   26.1890   48.8680    7.5130 C   0  0  0  0  0  0  0  0  0  0  0  0
   25.0360   48.0860    7.6230 C   0  0  0  0  0  0  0  0  0  0  0  0
   23.9060   48.3810    6.8720 C   0  0  0  0  0  0  0  0  0  0  0  0
   23.8880   49.4370    6.0080 C   0  0  0  0  0  0  0  0  0  0  0  0
   24.9980   50.2140    5.8810 C   0  0  0  0  0  0  0  0  0  0  0  0
   26.1360   49.9270    6.6300 C   0  0  0  0  0  0  0  0  0  0  0  0
   22.7120   49.7020    5.2600 N   0  0  0  0  0  0  0  0  0  0  0  0
   22.7570   50.2280    3.8900 C   0  0  0  0  0  0  0  0  0  0  0  0
   21.8720   51.4790    3.9430 C   0  0  0  0  0  0  0  0  0  0  0  0
   20.5800   51.0520    4.1830 O   0  0  0  0  0  0  0  0  0  0  0  0
   20.3710   50.4790    5.4120 C   0  0  0  0  0  0  0  0  0  0  0  0
   21.3970   49.4640    5.8200 C   0  0  0  0  0  0  0  0  0  0  0  0
   29.5693   47.9693    7.2687 H   0  0  0  0  0  0  0  0  0  0  0  0
   27.6332   44.1940    9.4288 H   0  0  0  0  0  0  0  0  0  0  0  0
   29.7777   43.9622    8.3713 H   0  0  0  0  0  0  0  0  0  0  0  0
   35.6980   45.3349    5.7174 H   0  0  0  0  0  0  0  0  0  0  0  0
   33.9385   46.6202    2.1192 H   0  0  0  0  0  0  0  0  0  0  0  0
   31.7668   46.7589    3.2263 H   0  0  0  0  0  0  0  0  0  0  0  0
   30.4434   46.5028    5.2059 H   0  0  0  0  0  0  0  0  0  0  0  0
   32.8591   43.2282    8.7982 H   0  0  0  0  0  0  0  0  0  0  0  0
   32.1372   43.6103   10.3594 H   0  0  0  0  0  0  0  0  0  0  0  0
   33.5652   44.6640   11.9063 H   0  0  0  0  0  0  0  0  0  0  0  0
   25.0243   47.2812    8.2689 H   0  0  0  0  0  0  0  0  0  0  0  0
   23.0648   47.7911    6.9690 H   0  0  0  0  0  0  0  0  0  0  0  0
   24.9962   51.0150    5.2303 H   0  0  0  0  0  0  0  0  0  0  0  0
   26.9686   50.5270    6.5210 H   0  0  0  0  0  0  0  0  0  0  0  0
   23.7588   50.4824    3.6131 H   0  0  0  0  0  0  0  0  0  0  0  0
   22.4210   49.5166    3.1648 H   0  0  0  0  0  0  0  0  0  0  0  0
   21.9187   52.0016    3.0105 H   0  0  0  0  0  0  0  0  0  0  0  0
   22.2016   52.1468    4.7113 H   0  0  0  0  0  0  0  0  0  0  0  0
   19.4156   49.9974    5.3957 H   0  0  0  0  0  0  0  0  0  0  0  0
   20.4341   51.2726    6.1269 H   0  0  0  0  0  0  0  0  0  0  0  0
   21.4777   49.4763    6.8869 H   0  0  0  0  0  0  0  0  0  0  0  0
   21.0655   48.5185    5.4445 H   0  0  0  0  0  0  0  0  0  0  0  0
  1  8  1  6  0  0  0
  1  2  1  0  0  0  0
  1  7  1  0  0  0  0
  2  3  2  0  0  0  0
  2 39  1  0  0  0  0
  3  4  1  0  0  0  0
  4  5  1  0  0  0  0
  6  4  1  0  0  0  0
  6 40  1  0  0  0  0
  7  6  2  0  0  0  0
  7 41  1  0  0  0  0
  8  9  2  0  0  0  0
  9 20  1  0  0  0  0
 10 12  1  0  0  0  0
 10  9  1  0  0  0  0
 11 10  1  0  0  0  0
 13 11  2  0  0  0  0
 13 42  1  0  0  0  0
 14 19  2  0  0  0  0
 14 11  1  0  0  0  0
 15 17  1  1  0  0  0
 15 13  1  0  0  0  0
 16 18  2  0  0  0  0
 16 15  1  0  0  0  0
 16 43  1  0  0  0  0
 18 14  1  0  0  0  0
 18 44  1  0  0  0  0
 19  8  1  0  0  0  0
 19 45  1  0  0  0  0
 20 21  1  0  0  0  0
 21 22  1  0  0  0  0
 21 46  1  0  0  0  0
 21 47  1  0  0  0  0
 22 23  1  0  0  0  0
 23 48  1  0  0  0  0
 24 22  2  0  0  0  0
 25  3  1  0  0  0  0
 25 26  1  0  0  0  0
 27 28  1  0  0  0  0
 27 25  1  0  0  0  0
 28 49  1  0  0  0  0
 29 28  2  0  0  0  0
 29 50  1  0  0  0  0
 30 29  1  0  0  0  0
 31 30  2  0  0  0  0
 31 32  1  0  0  0  0
 31 51  1  0  0  0  0
 32 27  2  0  0  0  0
 32 52  1  0  0  0  0
 33 38  1  0  0  0  0
 33 30  1  0  0  0  0
 34 35  1  0  0  0  0
 34 33  1  0  0  0  0
 34 53  1  0  0  0  0
 34 54  1  0  0  0  0
 35 36  1  0  0  0  0
 35 55  1  0  0  0  0
 35 56  1  0  0  0  0
 36 37  1  0  0  0  0
 37 38  1  0  0  0  0
 37 57  1  0  0  0  0
 37 58  1  0  0  0  0
 38 59  1  0  0  0  0
 38 60  1  0  0  0  0
M  END
>  <REMARK>
 VINA RESULT:      -7.8      4.165      9.977
  7 active torsions:
  status: ('A' for Active; 'I' for Inactive)
    1  A    between atoms: C_2  and  C_4 
    2  A    between atoms: C_4  and  O_5 
    3  A    between atoms: O_5  and  C_6 
    4  A    between atoms: C_7  and  C_8 
    5  A    between atoms: C_10  and  N_11 
    6  A    between atoms: N_11  and  C_13 
    7  A    between atoms: C_16  and  N_17 

>  <TORSDO>
F 7

$$$$
resistance_project/docking/5319283d3047ac55/Q9UM73_L1196M/docked/molecule_0010_out.pdbqt
 OpenBabel09232609193D

 60 64  0  0  1  0  0  0  0  0999 V2000
   30.5620   45.3960    8.1190 C   0  0  2  0  0  0  0  0  0  0  0  0
   31.7970   45.4750    8.7210 C   0  0  0  0  0  0  0  0  0  0  0  0
   32.3660   44.3960    9.3910 C   0  0  0  0  0  0  0  0  0  0  0  0
   31.7070   43.2260    9.4650 N   0  0  0  0  0  0  0  0  0  0  0  0
   32.1160   42.4300    9.9540 H   0  0  0  0  0  0  0  0  0  0  0  0
   30.4880   43.1220    8.8810 C   0  0  0  0  0  0  0  0  0  0  0  0
   29.8990   44.1790    8.2080 C   0  0  0  0  0  0  0  0  0  0  0  0
   29.9940   46.5460    7.4230 C   0  0  0  0  0  0  0  0  0  0  0  0
   30.6330   47.1820    6.3800 C   0  0  0  0  0  0  0  0  0  0  0  0
   30.1270   48.2400    5.7300 N   0  0  0  0  0  0  0  0  0  0  0  0
   28.9260   48.7130    6.1120 C   0  0  0  0  0  0  0  0  0  0  0  0
   30.6400   48.6760    4.9630 H   0  0  0  0  0  0  0  0  0  0  0  0
   28.3860   49.8120    5.4460 C   0  0  0  0  0  0  0  0  0  0  0  0
   28.2230   48.1210    7.1570 C   0  0  0  0  0  0  0  0  0  0  0  0
   27.1440   50.2950    5.8460 C   0  0  0  0  0  0  0  0  0  0  0  0
   26.4400   49.7080    6.8880 C   0  0  0  0  0  0  0  0  0  0  0  0
   26.3610   51.7870    4.9770 Br  0  0  0  0  0  0  0  0  0  0  0  0
   26.9860   48.6060    7.5540 C   0  0  0  0  0  0  0  0  0  0  0  0
   28.7720   47.0320    7.8080 C   0  0  0  0  0  0  0  0  0  0  0  0
   31.8730   46.7190    5.9620 O   0  0  0  0  0  0  0  0  0  0  0  0
   32.7460   47.4690    5.1570 C   0  0  0  0  0  0  0  0  0  0  0  0
   34.1430   46.9480    5.2340 C   0  0  0  0  0  0  0  0  0  0  0  0
   34.4000   45.7780    5.5840 O   0  0  0  0  0  0  0  0  0  0  0  0
   35.1520   47.8490    4.8910 O   0  0  0  0  0  0  0  0  0  0  0  0
   33.6450   44.6160    9.9670 N   0  0  0  0  0  0  0  0  0  0  0  0
   33.7590   44.3660   10.9490 H   0  0  0  0  0  0  0  0  0  0  0  0
   34.7650   45.1450    9.3110 C   0  0  0  0  0  0  0  0  0  0  0  0
   35.7410   44.2620    8.8390 C   0  0  0  0  0  0  0  0  0  0  0  0
   36.8680   44.7380    8.1830 C   0  0  0  0  0  0  0  0  0  0  0  0
   37.0570   46.0750    7.9810 C   0  0  0  0  0  0  0  0  0  0  0  0
   36.1230   46.9550    8.4310 C   0  0  0  0  0  0  0  0  0  0  0  0
   34.9880   46.4890    9.0900 C   0  0  0  0  0  0  0  0  0  0  0  0
   38.2240   46.5160    7.3050 N   0  0  0  0  0  0  0  0  0  0  0  0
   38.2320   47.7170    6.4600 C   0  0  0  0  0  0  0  0  0  0  0  0
   38.7840   47.2230    5.1180 C   0  0  0  0  0  0  0  0  0  0  0  0
   40.0990   46.8550    5.3310 O   0  0  0  0  0  0  0  0  0  0  0  0
   40.2780   45.7700    6.1530 C   0  0  0  0  0  0  0  0  0  0  0  0
   39.4760   45.7950    7.4190 C   0  0  0  0  0  0  0  0  0  0  0  0
   32.3187   46.3642    8.6740 H   0  0  0  0  0  0  0  0  0  0  0  0
   29.9819   42.2246    8.9401 H   0  0  0  0  0  0  0  0  0  0  0  0
   28.9700   44.0628    7.7738 H   0  0  0  0  0  0  0  0  0  0  0  0
   28.8984   50.2595    4.6699 H   0  0  0  0  0  0  0  0  0  0  0  0
   25.5202   50.0819    7.1694 H   0  0  0  0  0  0  0  0  0  0  0  0
   26.4747   48.1593    8.3312 H   0  0  0  0  0  0  0  0  0  0  0  0
   28.0740   46.2275    7.7060 H   0  0  0  0  0  0  0  0  0  0  0  0
   32.4118   47.4198    4.1417 H   0  0  0  0  0  0  0  0  0  0  0  0
   32.7440   48.4793    5.5095 H   0  0  0  0  0  0  0  0  0  0  0  0
   33.7038   45.1927    5.8093 H   0  0  0  0  0  0  0  0  0  0  0  0
   35.6224   43.2465    8.9797 H   0  0  0  0  0  0  0  0  0  0  0  0
   37.5759   44.0691    7.8418 H   0  0  0  0  0  0  0  0  0  0  0  0
   36.2552   47.9679    8.2842 H   0  0  0  0  0  0  0  0  0  0  0  0
   34.2901   47.1717    9.4244 H   0  0  0  0  0  0  0  0  0  0  0  0
   37.2423   48.1068    6.3438 H   0  0  0  0  0  0  0  0  0  0  0  0
   38.8154   48.5106    6.8780 H   0  0  0  0  0  0  0  0  0  0  0  0
   38.2182   46.3819    4.7755 H   0  0  0  0  0  0  0  0  0  0  0  0
   38.7183   47.9889    4.3737 H   0  0  0  0  0  0  0  0  0  0  0  0
   41.3137   45.7210    6.4172 H   0  0  0  0  0  0  0  0  0  0  0  0
   39.9394   44.9180    5.6014 H   0  0  0  0  0  0  0  0  0  0  0  0
   40.0647   46.2600    8.1820 H   0  0  0  0  0  0  0  0  0  0  0  0
   39.2306   44.7800    7.6521 H   0  0  0  0  0  0  0  0  0  0  0  0
  1  8  1  6  0  0  0
  1  7  1  0  0  0  0
  1  2  1  0  0  0  0
  2  3  2  0  0  0  0
  2 39  1  0  0  0  0
  3  4  1  0  0  0  0
  3 25  1  0  0  0  0
  4  5  1  0  0  0  0
  6  4  1  0  0  0  0
  6 40  1  0  0  0  0
  7  6  2  0  0  0  0
  7 41  1  0  0  0  0
  8 19  1  0  0  0  0
  9  8  2  0  0  0  0
 10 11  1  0  0  0  0
 10  9  1  0  0  0  0
 11 14  2  0  0  0  0
 12 10  1  0  0  0  0
 13 15  2  0  0  0  0
 13 11  1  0  0  0  0
 13 42  1  0  0  0  0
 14 18  1  0  0  0  0
 14 19  1  0  0  0  0
 15 16  1  0  0  0  0
 16 18  2  0  0  0  0
 16 43  1  0  0  0  0
 17 15  1  0  0  0  0
 18 44  1  0  0  0  0
 19 45  1  0  0  0  0
 20  9  1  0  0  0  0
 21 22  1  0  0  0  0
 21 20  1  0  0  0  0
 21 46  1  0  0  0  0
 21 47  1  0  0  0  0
 22 23  1  0  0  0  0
 23 48  1  0  0  0  0
 24 22  2  0  0  0  0
 25 26  1  0  0  0  0
 27 25  1  0  0  0  0
 28 27  2  0  0  0  0
 28 49  1  0  0  0  0
 29 28  1  0  0  0  0
 29 50  1  0  0  0  0
 30 29  2  0  0  0  0
 30 31  1  0  0  0  0
 31 32  2  0  0  0  0
 31 51  1  0  0  0  0
 32 27  1  0  0  0  0
 32 52  1  0  0  0  0
 33 38  1  0  0  0  0
 33 30  1  0  0  0  0
 34 33  1  0  0  0  0
 34 53  1  0  0  0  0
 34 54  1  0  0  0  0
 35 36  1  0  0  0  0
 35 34  1  0  0  0  0
 35 55  1  0  0  0  0
 35 56  1  0  0  0  0
 36 37  1  0  0  0  0
 37 38  1  0  0  0  0
 37 57  1  0  0  0  0
 37 58  1  0  0  0  0
 38 59  1  0  0  0  0
 38 60  1  0  0  0  0
M  END
>  <REMARK>
 VINA RESULT:      -7.4      1.609      2.098
  7 active torsions:
  status: ('A' for Active; 'I' for Inactive)
    1  A    between atoms: C_2  and  C_4 
    2  A    between atoms: C_4  and  O_5 
    3  A    between atoms: O_5  and  C_6 
    4  A    between atoms: C_7  and  C_8 
    5  A    between atoms: C_10  and  N_11 
    6  A    between atoms: N_11  and  C_13 
    7  A    between atoms: C_16  and  N_17 

>  <TORSDO>
F 7

$$$$
resistance_project/docking/5319283d3047ac55/Q9UM73_L1196M/docked/molecule_0010_out.pdbqt
 OpenBabel09232609193D

 60 64  0  0  1  0  0  0  0  0999 V2000
   28.2350   48.7280    6.9340 C   0  0  2  0  0  0  0  0  0  0  0  0
   28.2930   47.5970    7.7160 C   0  0  0  0  0  0  0  0  0  0  0  0
   27.1510   46.9930    8.2310 C   0  0  0  0  0  0  0  0  0  0  0  0
   25.9380   47.5120    7.9700 N   0  0  0  0  0  0  0  0  0  0  0  0
   25.0950   47.0760    8.3440 H   0  0  0  0  0  0  0  0  0  0  0  0
   25.8530   48.6260    7.2030 C   0  0  0  0  0  0  0  0  0  0  0  0
   26.9740   49.2480    6.6760 C   0  0  0  0  0  0  0  0  0  0  0  0
   29.4530   49.3370    6.4080 C   0  0  0  0  0  0  0  0  0  0  0  0
   29.4430   50.4400    5.5800 C   0  0  0  0  0  0  0  0  0  0  0  0
   30.5510   51.0120    5.0880 N   0  0  0  0  0  0  0  0  0  0  0  0
   31.7450   50.4850    5.4160 C   0  0  0  0  0  0  0  0  0  0  0  0
   30.4900   51.8280    4.4780 H   0  0  0  0  0  0  0  0  0  0  0  0
   32.9070   51.0680    4.9120 C   0  0  0  0  0  0  0  0  0  0  0  0
   31.8310   49.3710    6.2470 C   0  0  0  0  0  0  0  0  0  0  0  0
   34.1370   50.5180    5.2560 C   0  0  0  0  0  0  0  0  0  0  0  0
   34.2290   49.4080    6.0840 C   0  0  0  0  0  0  0  0  0  0  0  0
   35.7500   51.2690    4.6010 Br  0  0  0  0  0  0  0  0  0  0  0  0
   33.0600   48.8250    6.5870 C   0  0  0  0  0  0  0  0  0  0  0  0
   30.6700   48.8050    6.7380 C   0  0  0  0  0  0  0  0  0  0  0  0
   28.2280   51.0070    5.2230 O   0  0  0  0  0  0  0  0  0  0  0  0
   27.9430   52.3760    5.3610 C   0  0  0  0  0  0  0  0  0  0  0  0
   28.0870   52.8230    6.7780 C   0  0  0  0  0  0  0  0  0  0  0  0
   27.1640   52.7050    7.6100 O   0  0  0  0  0  0  0  0  0  0  0  0
   29.3170   53.3840    7.1230 O   0  0  0  0  0  0  0  0  0  0  0  0
   27.3540   45.8320    9.0240 N   0  0  0  0  0  0  0  0  0  0  0  0
   26.5580   45.4950    9.5640 H   0  0  0  0  0  0  0  0  0  0  0  0
   28.5490   45.1070    9.1320 C   0  0  0  0  0  0  0  0  0  0  0  0
   29.5850   45.3890    8.2370 C   0  0  0  0  0  0  0  0  0  0  0  0
   30.7870   44.6990    8.3040 C   0  0  0  0  0  0  0  0  0  0  0  0
   30.9930   43.7280    9.2410 C   0  0  0  0  0  0  0  0  0  0  0  0
   30.0010   43.4330   10.1250 C   0  0  0  0  0  0  0  0  0  0  0  0
   28.7910   44.1200   10.0660 C   0  0  0  0  0  0  0  0  0  0  0  0
   32.2370   43.0480    9.2740 N   0  0  0  0  0  0  0  0  0  0  0  0
   32.9460   42.7720   10.5300 C   0  0  0  0  0  0  0  0  0  0  0  0
   34.3440   43.3600   10.3050 C   0  0  0  0  0  0  0  0  0  0  0  0
   34.9450   42.6070    9.3130 O   0  0  0  0  0  0  0  0  0  0  0  0
   34.3690   42.7060    8.0720 C   0  0  0  0  0  0  0  0  0  0  0  0
   32.8740   42.5870    8.0560 C   0  0  0  0  0  0  0  0  0  0  0  0
   29.2146   47.1833    7.9273 H   0  0  0  0  0  0  0  0  0  0  0  0
   24.9221   49.0248    7.0046 H   0  0  0  0  0  0  0  0  0  0  0  0
   26.8716   50.0942    6.0942 H   0  0  0  0  0  0  0  0  0  0  0  0
   32.8551   51.8932    4.2945 H   0  0  0  0  0  0  0  0  0  0  0  0
   35.1520   49.0155    6.3270 H   0  0  0  0  0  0  0  0  0  0  0  0
   33.1119   47.9989    7.2034 H   0  0  0  0  0  0  0  0  0  0  0  0
   30.7401   48.8346    7.8053 H   0  0  0  0  0  0  0  0  0  0  0  0
   26.9385   52.5565    5.0396 H   0  0  0  0  0  0  0  0  0  0  0  0
   28.6384   52.9264    4.7623 H   0  0  0  0  0  0  0  0  0  0  0  0
   26.3472   52.3247    7.3528 H   0  0  0  0  0  0  0  0  0  0  0  0
   29.4545   46.1183    7.5186 H   0  0  0  0  0  0  0  0  0  0  0  0
   31.5386   44.9239    7.6335 H   0  0  0  0  0  0  0  0  0  0  0  0
   30.1453   42.7011   10.8381 H   0  0  0  0  0  0  0  0  0  0  0  0
   28.0499   43.8830   10.7439 H   0  0  0  0  0  0  0  0  0  0  0  0
   33.0012   41.7190   10.7119 H   0  0  0  0  0  0  0  0  0  0  0  0
   32.4542   43.1942   11.3814 H   0  0  0  0  0  0  0  0  0  0  0  0
   34.2675   44.3814    9.9955 H   0  0  0  0  0  0  0  0  0  0  0  0
   34.9194   43.3322   11.2067 H   0  0  0  0  0  0  0  0  0  0  0  0
   34.6307   43.6580    7.6596 H   0  0  0  0  0  0  0  0  0  0  0  0
   34.7409   41.8798    7.5028 H   0  0  0  0  0  0  0  0  0  0  0  0
   32.6191   41.5580    7.9107 H   0  0  0  0  0  0  0  0  0  0  0  0
   32.5202   43.2126    7.2634 H   0  0  0  0  0  0  0  0  0  0  0  0
  1  8  1  6  0  0  0
  1  2  1  0  0  0  0
  2  3  2  0  0  0  0
  2 39  1  0  0  0  0
  3 25  1  0  0  0  0
  4  3  1  0  0  0  0
  4  5  1  0  0  0  0
  6  4  1  0  0  0  0
  6 40  1  0  0  0  0
  7  1  1  0  0  0  0
  7  6  2  0  0  0  0
  7 41  1  0  0  0  0
  8 19  1  0  0  0  0
  9  8  2  0  0  0  0
 10 11  1  0  0  0  0
 10  9  1  0  0  0  0
 11 14  2  0  0  0  0
 12 10  1  0  0  0  0
 13 15  2  0  0  0  0
 13 11  1  0  0  0  0
 13 42  1  0  0  0  0
 14 18  1  0  0  0  0
 14 19  1  0  0  0  0
 15 16  1  0  0  0  0
 16 18  2  0  0  0  0
 16 43  1  0  0  0  0
 17 15  1  0  0  0  0
 18 44  1  0  0  0  0
 19 45  1  0  0  0  0
 20 21  1  0  0  0  0
 20  9  1  0  0  0  0
 21 22  1  0  0  0  0
 21 46  1  0  0  0  0
 21 47  1  0  0  0  0
 22 24  2  0  0  0  0
 22 23  1  0  0  0  0
 23 48  1  0  0  0  0
 25 27  1  0  0  0  0
 25 26  1  0  0  0  0
 27 32  2  0  0  0  0
 28 29  2  0  0  0  0
 28 27  1  0  0  0  0
 28 49  1  0  0  0  0
 29 30  1  0  0  0  0
 29 50  1  0  0  0  0
 30 33  1  0  0  0  0
 30 31  2  0  0  0  0
 31 51  1  0  0  0  0
 32 31  1  0  0  0  0
 32 52  1  0  0  0  0
 33 34  1  0  0  0  0
 34 53  1  0  0  0  0
 34 54  1  0  0  0  0
 35 34  1  0  0  0  0
 35 55  1  0  0  0  0
 35 56  1  0  0  0  0
 36 35  1  0  0  0  0
 37 36  1  0  0  0  0
 37 57  1  0  0  0  0
 37 58  1  0  0  0  0
 38 37  1  0  0  0  0
 38 33  1  0  0  0  0
 38 59  1  0  0  0  0
 38 60  1  0  0  0  0
M  END
>  <REMARK>
 VINA RESULT:      -7.3      3.563      6.092
  7 active torsions:
  status: ('A' for Active; 'I' for Inactive)
    1  A    between atoms: C_2  and  C_4 
    2  A    between atoms: C_4  and  O_5 
    3  A    between atoms: O_5  and  C_6 
    4  A    between atoms: C_7  and  C_8 
    5  A    between atoms: C_10  and  N_11 
    6  A    between atoms: N_11  and  C_13 
    7  A    between atoms: C_16  and  N_17 

>  <TORSDO>
F 7

$$$$
resistance_project/docking/5319283d3047ac55/Q9UM73_L1196M/docked/molecule_0010_out.pdbqt
 OpenBabel09232609193D

 60 64  0  0  1  0  0  0  0  0999 V2000
   27.1440   48.1340    7.5150 C   0  0  2  0  0  0  0  0  0  0  0  0
   27.2300   49.5050    7.4330 C   0  0  0  0  0  0  0  0  0  0  0  0
   26.1070   50.3090    7.2690 C   0  0  0  0  0  0  0  0  0  0  0  0
   24.8850   49.7520    7.1850 N   0  0  0  0  0  0  0  0  0  0  0  0
   24.0560   50.3340    7.0650 H   0  0  0  0  0  0  0  0  0  0  0  0
   24.7740   48.4040    7.2630 C   0  0  0  0  0  0  0  0  0  0  0  0
   25.8750   47.5790    7.4270 C   0  0  0  0  0  0  0  0  0  0  0  0
   28.3430   47.3190    7.6890 C   0  0  0  0  0  0  0  0  0  0  0  0
   29.5600   47.6480    7.1300 C   0  0  0  0  0  0  0  0  0  0  0  0
   30.6710   46.9120    7.2780 N   0  0  0  0  0  0  0  0  0  0  0  0
   30.6010   45.7860    8.0140 C   0  0  0  0  0  0  0  0  0  0  0  0
   31.5490   47.1980    6.8440 H   0  0  0  0  0  0  0  0  0  0  0  0
   31.7470   45.0100    8.1770 C   0  0  0  0  0  0  0  0  0  0  0  0
   29.4050   45.3930    8.6080 C   0  0  0  0  0  0  0  0  0  0  0  0
   31.6680   43.8480    8.9390 C   0  0  0  0  0  0  0  0  0  0  0  0
   30.4780   43.4520    9.5330 C   0  0  0  0  0  0  0  0  0  0  0  0
   33.1940   42.7540    9.1960 Br  0  0  0  0  0  0  0  0  0  0  0  0
   29.3300   44.2340    9.3660 C   0  0  0  0  0  0  0  0  0  0  0  0
   28.2780   46.1730    8.4360 C   0  0  0  0  0  0  0  0  0  0  0  0
   29.6650   48.8010    6.3660 O   0  0  0  0  0  0  0  0  0  0  0  0
   30.5240   49.8650    6.6870 C   0  0  0  0  0  0  0  0  0  0  0  0
   31.6840   49.9330    5.7500 C   0  0  0  0  0  0  0  0  0  0  0  0
   31.8310   50.8720    4.9400 O   0  0  0  0  0  0  0  0  0  0  0  0
   32.6000   48.8850    5.8310 O   0  0  0  0  0  0  0  0  0  0  0  0
   26.3380   51.7090    7.1980 N   0  0  0  0  0  0  0  0  0  0  0  0
   25.7180   52.3090    7.7420 H   0  0  0  0  0  0  0  0  0  0  0  0
   27.3390   52.3420    6.4470 C   0  0  0  0  0  0  0  0  0  0  0  0
   28.3640   53.0050    7.1280 C   0  0  0  0  0  0  0  0  0  0  0  0
   29.3770   53.6470    6.4290 C   0  0  0  0  0  0  0  0  0  0  0  0
   29.4030   53.6510    5.0640 C   0  0  0  0  0  0  0  0  0  0  0  0
   28.4160   53.0130    4.3780 C   0  0  0  0  0  0  0  0  0  0  0  0
   27.3950   52.3660    5.0680 C   0  0  0  0  0  0  0  0  0  0  0  0
   30.4580   54.3190    4.3910 N   0  0  0  0  0  0  0  0  0  0  0  0
   30.2510   55.0330    3.1250 C   0  0  0  0  0  0  0  0  0  0  0  0
   31.2970   54.4260    2.1820 C   0  0  0  0  0  0  0  0  0  0  0  0
   32.5390   54.7900    2.6660 O   0  0  0  0  0  0  0  0  0  0  0  0
   32.8750   54.2490    3.8820 C   0  0  0  0  0  0  0  0  0  0  0  0
   31.8040   54.3290    4.9290 C   0  0  0  0  0  0  0  0  0  0  0  0
   28.1584   49.9513    7.4952 H   0  0  0  0  0  0  0  0  0  0  0  0
   23.8368   47.9768    7.1980 H   0  0  0  0  0  0  0  0  0  0  0  0
   25.7519   46.5559    7.4835 H   0  0  0  0  0  0  0  0  0  0  0  0
   32.6386   45.2920    7.7404 H   0  0  0  0  0  0  0  0  0  0  0  0
   30.4401   42.5867   10.0940 H   0  0  0  0  0  0  0  0  0  0  0  0
   28.4380   43.9518    9.8016 H   0  0  0  0  0  0  0  0  0  0  0  0
   27.5379   45.5492    7.9799 H   0  0  0  0  0  0  0  0  0  0  0  0
   29.9769   50.7828    6.6303 H   0  0  0  0  0  0  0  0  0  0  0  0
   30.9001   49.7063    7.6761 H   0  0  0  0  0  0  0  0  0  0  0  0
   32.4662   48.1924    6.4478 H   0  0  0  0  0  0  0  0  0  0  0  0
   28.3677   53.0173    8.1599 H   0  0  0  0  0  0  0  0  0  0  0  0
   30.1246   54.1304    6.9510 H   0  0  0  0  0  0  0  0  0  0  0  0
   28.4245   53.0089    3.3460 H   0  0  0  0  0  0  0  0  0  0  0  0
   26.6549   51.8881    4.5305 H   0  0  0  0  0  0  0  0  0  0  0  0
   29.2616   54.8679    2.7525 H   0  0  0  0  0  0  0  0  0  0  0  0
   30.3549   56.0930    3.2280 H   0  0  0  0  0  0  0  0  0  0  0  0
   31.2057   53.3600    2.1698 H   0  0  0  0  0  0  0  0  0  0  0  0
   31.1591   54.7796    1.1816 H   0  0  0  0  0  0  0  0  0  0  0  0
   33.7369   54.7662    4.2487 H   0  0  0  0  0  0  0  0  0  0  0  0
   33.0466   53.2072    3.7087 H   0  0  0  0  0  0  0  0  0  0  0  0
   31.9396   55.2351    5.4818 H   0  0  0  0  0  0  0  0  0  0  0  0
   31.9013   53.4571    5.5416 H   0  0  0  0  0  0  0  0  0  0  0  0
  1  8  1  1  0  0  0
  2  1  1  0  0  0  0
  2 39  1  0  0  0  0
  3  2  2  0  0  0  0
  4  6  1  0  0  0  0
  4  3  1  0  0  0  0
  5  4  1  0  0  0  0
  6  7  2  0  0  0  0
  6 40  1  0  0  0  0
  7  1  1  0  0  0  0
  7 41  1  0  0  0  0
  8 19  1  0  0  0  0
  9 10  1  0  0  0  0
  9  8  2  0  0  0  0
 10 11  1  0  0  0  0
 11 13  1  0  0  0  0
 11 14  2  0  0  0  0
 12 10  1  0  0  0  0
 13 15  2  0  0  0  0
 13 42  1  0  0  0  0
 14 18  1  0  0  0  0
 15 17  1  0  0  0  0
 15 16  1  0  0  0  0
 16 43  1  0  0  0  0
 18 16  2  0  0  0  0
 18 44  1  0  0  0  0
 19 14  1  0  0  0  0
 19 45  1  0  0  0  0
 20 21  1  0  0  0  0
 20  9  1  0  0  0  0
 21 46  1  0  0  0  0
 21 47  1  0  0  0  0
 22 24  1  0  0  0  0
 22 21  1  0  0  0  0
 23 22  2  0  0  0  0
 24 48  1  0  0  0  0
 25  3  1  0  0  0  0
 25 26  1  0  0  0  0
 27 28  1  0  0  0  0
 27 25  1  0  0  0  0
 28 49  1  0  0  0  0
 29 28  2  0  0  0  0
 29 50  1  0  0  0  0
 30 29  1  0  0  0  0
 31 30  2  0  0  0  0
 31 32  1  0  0  0  0
 31 51  1  0  0  0  0
 32 27  2  0  0  0  0
 32 52  1  0  0  0  0
 33 38  1  0  0  0  0
 33 30  1  0  0  0  0
 34 33  1  0  0  0  0
 34 53  1  0  0  0  0
 34 54  1  0  0  0  0
 35 36  1  0  0  0  0
 35 34  1  0  0  0  0
 35 55  1  0  0  0  0
 35 56  1  0  0  0  0
 36 37  1  0  0  0  0
 37 38  1  0  0  0  0
 37 57  1  0  0  0  0
 37 58  1  0  0  0  0
 38 59  1  0  0  0  0
 38 60  1  0  0  0  0
M  END
>  <REMARK>
 VINA RESULT:      -7.3      4.216      8.166
  7 active torsions:
  status: ('A' for Active; 'I' for Inactive)
    1  A    between atoms: C_2  and  C_4 
    2  A    between atoms: C_4  and  O_5 
    3  A    between atoms: O_5  and  C_6 
    4  A    between atoms: C_7  and  C_8 
    5  A    between atoms: C_10  and  N_11 
    6  A    between atoms: N_11  and  C_13 
    7  A    between atoms: C_16  and  N_17 

>  <TORSDO>
F 7

$$$$
resistance_project/docking/5319283d3047ac55/Q9UM73_L1196M/docked/molecule_0010_out.pdbqt
 OpenBabel09232609193D

 60 64  0  0  1  0  0  0  0  0999 V2000
   29.1210   46.6040    8.2260 C   0  0  2  0  0  0  0  0  0  0  0  0
   30.2190   45.7880    8.0860 C   0  0  0  0  0  0  0  0  0  0  0  0
   30.3290   44.5710    8.7520 C   0  0  0  0  0  0  0  0  0  0  0  0
   29.3420   44.1570    9.5660 N   0  0  0  0  0  0  0  0  0  0  0  0
   29.4140   43.2670   10.0580 H   0  0  0  0  0  0  0  0  0  0  0  0
   28.2480   44.9430    9.7210 C   0  0  0  0  0  0  0  0  0  0  0  0
   28.1130   46.1580    9.0700 C   0  0  0  0  0  0  0  0  0  0  0  0
   29.0370   47.8740    7.5120 C   0  0  0  0  0  0  0  0  0  0  0  0
   27.8510   48.3860    7.0290 C   0  0  0  0  0  0  0  0  0  0  0  0
   27.7540   49.5500    6.3710 N   0  0  0  0  0  0  0  0  0  0  0  0
   28.8760   50.2660    6.1660 C   0  0  0  0  0  0  0  0  0  0  0  0
   26.8520   49.8860    6.0330 H   0  0  0  0  0  0  0  0  0  0  0  0
   28.7930   51.4780    5.4840 C   0  0  0  0  0  0  0  0  0  0  0  0
   30.1090   49.8110    6.6260 C   0  0  0  0  0  0  0  0  0  0  0  0
   29.9570   52.2130    5.2760 C   0  0  0  0  0  0  0  0  0  0  0  0
   31.1880   51.7630    5.7320 C   0  0  0  0  0  0  0  0  0  0  0  0
   29.9040   53.8680    4.3550 Br  0  0  0  0  0  0  0  0  0  0  0  0
   31.2660   50.5450    6.4160 C   0  0  0  0  0  0  0  0  0  0  0  0
   30.1750   48.6060    7.3010 C   0  0  0  0  0  0  0  0  0  0  0  0
   26.6770   47.6720    7.2230 O   0  0  0  0  0  0  0  0  0  0  0  0
   25.5100   48.2370    7.7640 C   0  0  0  0  0  0  0  0  0  0  0  0
   24.5410   48.6200    6.6950 C   0  0  0  0  0  0  0  0  0  0  0  0
   24.6550   49.6770    6.0410 O   0  0  0  0  0  0  0  0  0  0  0  0
   23.4960   47.7260    6.4650 O   0  0  0  0  0  0  0  0  0  0  0  0
   31.5170   43.8290    8.5180 N   0  0  0  0  0  0  0  0  0  0  0  0
   31.4250   42.8150    8.4560 H   0  0  0  0  0  0  0  0  0  0  0  0
   32.8060   44.3610    8.3660 C   0  0  0  0  0  0  0  0  0  0  0  0
   33.3490   44.4370    7.0800 C   0  0  0  0  0  0  0  0  0  0  0  0
   34.6200   44.9550    6.8780 C   0  0  0  0  0  0  0  0  0  0  0  0
   35.3750   45.4030    7.9240 C   0  0  0  0  0  0  0  0  0  0  0  0
   34.8700   45.3400    9.1860 C   0  0  0  0  0  0  0  0  0  0  0  0
   33.5960   44.8220    9.3990 C   0  0  0  0  0  0  0  0  0  0  0  0
   36.6690   45.9260    7.6720 N   0  0  0  0  0  0  0  0  0  0  0  0
   37.8880   45.1360    7.8850 C   0  0  0  0  0  0  0  0  0  0  0  0
   38.7430   46.0130    8.8070 C   0  0  0  0  0  0  0  0  0  0  0  0
   39.0970   47.1360    8.0830 O   0  0  0  0  0  0  0  0  0  0  0  0
   38.0580   47.9680    7.7480 C   0  0  0  0  0  0  0  0  0  0  0  0
   36.8510   47.2790    7.1850 C   0  0  0  0  0  0  0  0  0  0  0  0
   30.9875   46.0883    7.4661 H   0  0  0  0  0  0  0  0  0  0  0  0
   27.4902   44.6251   10.3453 H   0  0  0  0  0  0  0  0  0  0  0  0
   27.2658   46.7300    9.2119 H   0  0  0  0  0  0  0  0  0  0  0  0
   27.8844   51.8250    5.1389 H   0  0  0  0  0  0  0  0  0  0  0  0
   32.0395   52.3225    5.5678 H   0  0  0  0  0  0  0  0  0  0  0  0
   32.1745   50.1970    6.7603 H   0  0  0  0  0  0  0  0  0  0  0  0
   30.5907   48.8146    8.2646 H   0  0  0  0  0  0  0  0  0  0  0  0
   25.0472   47.5236    8.4134 H   0  0  0  0  0  0  0  0  0  0  0  0
   25.7831   49.1208    8.3018 H   0  0  0  0  0  0  0  0  0  0  0  0
   23.4329   46.9392    6.9698 H   0  0  0  0  0  0  0  0  0  0  0  0
   32.7988   44.1044    6.2728 H   0  0  0  0  0  0  0  0  0  0  0  0
   35.0017   45.0026    5.9204 H   0  0  0  0  0  0  0  0  0  0  0  0
   35.4311   45.6760    9.9843 H   0  0  0  0  0  0  0  0  0  0  0  0
   33.2295   44.7813   10.3629 H   0  0  0  0  0  0  0  0  0  0  0  0
   38.3910   44.9556    6.9580 H   0  0  0  0  0  0  0  0  0  0  0  0
   37.6859   44.1726    8.3045 H   0  0  0  0  0  0  0  0  0  0  0  0
   39.6198   45.4805    9.1113 H   0  0  0  0  0  0  0  0  0  0  0  0
   38.2000   46.2827    9.6887 H   0  0  0  0  0  0  0  0  0  0  0  0
   37.7581   48.4959    8.6291 H   0  0  0  0  0  0  0  0  0  0  0  0
   38.4253   48.6084    6.9735 H   0  0  0  0  0  0  0  0  0  0  0  0
   35.9845   47.8504    7.4449 H   0  0  0  0  0  0  0  0  0  0  0  0
   36.9956   47.2124    6.1269 H   0  0  0  0  0  0  0  0  0  0  0  0
  1  8  1  6  0  0  0
  1  7  1  0  0  0  0
  2  1  1  0  0  0  0
  2  3  2  0  0  0  0
  2 39  1  0  0  0  0
  3  4  1  0  0  0  0
  4  6  1  0  0  0  0
  4  5  1  0  0  0  0
  6 40  1  0  0  0  0
  7  6  2  0  0  0  0
  7 41  1  0  0  0  0
  9 20  1  0  0  0  0
  9  8  2  0  0  0  0
 10  9  1  0  0  0  0
 11 10  1  0  0  0  0
 11 14  2  0  0  0  0
 12 10  1  0  0  0  0
 13 11  1  0  0  0  0
 13 42  1  0  0  0  0
 14 19  1  0  0  0  0
 15 13  2  0  0  0  0
 15 16  1  0  0  0  0
 16 18  2  0  0  0  0
 16 43  1  0  0  0  0
 17 15  1  0  0  0  0
 18 14  1  0  0  0  0
 18 44  1  0  0  0  0
 19  8  1  0  0  0  0
 19 45  1  0  0  0  0
 20 21  1  0  0  0  0
 21 46  1  0  0  0  0
 21 47  1  0  0  0  0
 22 21  1  0  0  0  0
 23 22  2  0  0  0  0
 24 22  1  0  0  0  0
 24 48  1  0  0  0  0
 25  3  1  0  0  0  0
 26 25  1  0  0  0  0
 27 25  1  0  0  0  0
 27 32  2  0  0  0  0
 28 27  1  0  0  0  0
 28 49  1  0  0  0  0
 29 28  2  0  0  0  0
 29 30  1  0  0  0  0
 29 50  1  0  0  0  0
 30 31  2  0  0  0  0
 31 32  1  0  0  0  0
 31 51  1  0  0  0  0
 32 52  1  0  0  0  0
 33 34  1  0  0  0  0
 33 30  1  0  0  0  0
 34 35  1  0  0  0  0
 34 53  1  0  0  0  0
 34 54  1  0  0  0  0
 35 55  1  0  0  0  0
 35 56  1  0  0  0  0
 36 35  1  0  0  0  0
 37 36  1  0  0  0  0
 37 57  1  0  0  0  0
 37 58  1  0  0  0  0
 38 33  1  0  0  0  0
 38 37  1  0  0  0  0
 38 59  1  0  0  0  0
 38 60  1  0  0  0  0
M  END
>  <REMARK>
 VINA RESULT:      -7.2      2.470      3.935
  7 active torsions:
  status: ('A' for Active; 'I' for Inactive)
    1  A    between atoms: C_2  and  C_4 
    2  A    between atoms: C_4  and  O_5 
    3  A    between atoms: O_5  and  C_6 
    4  A    between atoms: C_7  and  C_8 
    5  A    between atoms: C_10  and  N_11 
    6  A    between atoms: N_11  and  C_13 
    7  A    between atoms: C_16  and  N_17 

>  <TORSDO>
F 7

$$$$
