resistance_project/docking/5319283d3047ac55/Q9UM73_L1196M/docked/molecule_0001_out.pdbqt
 OpenBabel09232609183D

 56 58  0  0  0  0  0  0  0  0999 V2000
   28.6150   47.6860    7.2890 C   0  0  0  0  0  0  0  0  0  0  0  0
   29.6720   47.2930    6.4680 C   0  0  0  0  0  0  0  0  0  0  0  0
   30.6900   46.4740    6.9150 C   0  0  0  0  0  0  0  0  0  0  0  0
   30.6000   46.0590    8.2420 C   0  0  0  0  0  0  0  0  0  0  0  0
   29.5290   46.4690    9.0420 C   0  0  0  0  0  0  0  0  0  0  0  0
   28.5440   47.2750    8.5740 N   0  0  0  0  0  0  0  0  0  0  0  0
   27.7710   47.5610    9.1740 H   0  0  0  0  0  0  0  0  0  0  0  0
   27.6350   48.5310    6.6980 N   0  0  0  0  0  0  0  0  0  0  0  0
   26.2800   48.4440    7.0500 C   0  0  0  0  0  0  0  0  0  0  0  0
   25.3630   49.3120    6.3700 N   0  0  0  0  0  0  0  0  0  0  0  0
   25.9130   47.6270    7.9320 O   0  0  0  0  0  0  0  0  0  0  0  0
   25.6950   49.9560    5.6530 H   0  0  0  0  0  0  0  0  0  0  0  0
   27.9240   49.2170    6.0020 H   0  0  0  0  0  0  0  0  0  0  0  0
   23.9810   49.2600    6.7100 C   0  0  0  0  0  0  0  0  0  0  0  0
   23.2570   48.0860    6.7520 C   0  0  0  0  0  0  0  0  0  0  0  0
   21.9160   48.0360    7.0820 C   0  0  0  0  0  0  0  0  0  0  0  0
   21.2440   49.1910    7.3880 C   0  0  0  0  0  0  0  0  0  0  0  0
   21.9460   50.3790    7.3530 C   0  0  0  0  0  0  0  0  0  0  0  0
   23.2810   50.4240    7.0240 C   0  0  0  0  0  0  0  0  0  0  0  0
   21.2140   51.5980    7.6820 C   0  0  0  0  0  0  0  0  0  0  0  0
   21.6930   52.5410    8.6380 N   0  0  0  0  0  0  0  0  0  0  0  0
   20.9270   53.7790    8.7740 C   0  0  0  0  0  0  0  0  0  0  0  0
   22.5270   52.3620    9.1970 H   0  0  0  0  0  0  0  0  0  0  0  0
   20.1200   51.8310    7.1020 O   0  0  0  0  0  0  0  0  0  0  0  0
   31.6530   45.2020    8.7330 C   0  0  0  0  0  0  0  0  0  0  0  0
   31.3970   43.8450    8.8250 C   0  0  0  0  0  0  0  0  0  0  0  0
   30.0670   43.3130    8.4240 C   0  0  0  0  0  0  0  0  0  0  0  0
   32.3790   42.9670    9.2930 C   0  0  0  0  0  0  0  0  0  0  0  0
   33.6370   43.4390    9.6760 C   0  0  0  0  0  0  0  0  0  0  0  0
   33.8880   44.7940    9.5830 C   0  0  0  0  0  0  0  0  0  0  0  0
   32.9020   45.6460    9.1170 C   0  0  0  0  0  0  0  0  0  0  0  0
   35.1410   45.3700    9.9510 N   0  0  0  0  0  0  0  0  0  0  0  0
   36.2010   45.5890    8.9870 C   0  0  0  0  0  0  0  0  0  0  0  0
   35.3270   45.7370   11.3450 C   0  0  0  0  0  0  0  0  0  0  0  0
   29.6940   47.6263    5.4915 H   0  0  0  0  0  0  0  0  0  0  0  0
   31.6120   47.0045    6.7994 H   0  0  0  0  0  0  0  0  0  0  0  0
   29.4867   46.1474   10.0217 H   0  0  0  0  0  0  0  0  0  0  0  0
   23.7404   47.2026    6.5260 H   0  0  0  0  0  0  0  0  0  0  0  0
   21.4212   47.1305    7.0981 H   0  0  0  0  0  0  0  0  0  0  0  0
   20.2427   49.1728    7.6372 H   0  0  0  0  0  0  0  0  0  0  0  0
   23.7711   51.3321    7.0094 H   0  0  0  0  0  0  0  0  0  0  0  0
   20.0970   53.7609    8.0990 H   0  0  0  0  0  0  0  0  0  0  0  0
   21.5552   54.6142    8.5445 H   0  0  0  0  0  0  0  0  0  0  0  0
   20.5682   53.8679    9.7781 H   0  0  0  0  0  0  0  0  0  0  0  0
   29.4453   44.1189    8.0939 H   0  0  0  0  0  0  0  0  0  0  0  0
   29.6091   42.8292    9.2614 H   0  0  0  0  0  0  0  0  0  0  0  0
   30.1899   42.6083    7.6283 H   0  0  0  0  0  0  0  0  0  0  0  0
   32.1722   41.9579    9.3564 H   0  0  0  0  0  0  0  0  0  0  0  0
   34.3619   42.7902   10.0204 H   0  0  0  0  0  0  0  0  0  0  0  0
   33.1093   46.6550    9.0541 H   0  0  0  0  0  0  0  0  0  0  0  0
   35.8792   45.2581    8.0217 H   0  0  0  0  0  0  0  0  0  0  0  0
   37.0701   45.0386    9.2813 H   0  0  0  0  0  0  0  0  0  0  0  0
   36.4363   46.6320    8.9464 H   0  0  0  0  0  0  0  0  0  0  0  0
   36.3038   46.1534   11.4769 H   0  0  0  0  0  0  0  0  0  0  0  0
   35.2241   44.8672   11.9596 H   0  0  0  0  0  0  0  0  0  0  0  0
   34.5900   46.4605   11.6247 H   0  0  0  0  0  0  0  0  0  0  0  0
  1  6  1  0  0  0  0
  2  3  1  0  0  0  0
  2  1  2  0  0  0  0
  2 35  1  0  0  0  0
  3  4  1  0  0  0  0
  3 36  1  0  0  0  0
  4 25  1  0  0  0  0
  4  5  2  0  0  0  0
  5 37  1  0  0  0  0
  6  5  1  0  0  0  0
  6  7  1  0  0  0  0
  8  9  1  0  0  0  0
  8  1  1  0  0  0  0
  9 11  2  0  0  0  0
 10 14  1  0  0  0  0
 10  9  1  0  0  0  0
 12 10  1  0  0  0  0
 13  8  1  0  0  0  0
 14 15  2  0  0  0  0
 14 19  1  0  0  0  0
 15 16  1  0  0  0  0
 15 38  1  0  0  0  0
 16 17  2  0  0  0  0
 16 39  1  0  0  0  0
 17 40  1  0  0  0  0
 18 17  1  0  0  0  0
 18 20  1  0  0  0  0
 19 18  2  0  0  0  0
 19 41  1  0  0  0  0
 20 21  1  0  0  0  0
 21 22  1  0  0  0  0
 21 23  1  0  0  0  0
 22 42  1  0  0  0  0
 22 43  1  0  0  0  0
 22 44  1  0  0  0  0
 24 20  2  0  0  0  0
 25 26  2  0  0  0  0
 25 31  1  0  0  0  0
 26 28  1  0  0  0  0
 27 26  1  0  0  0  0
 27 45  1  0  0  0  0
 27 46  1  0  0  0  0
 27 47  1  0  0  0  0
 28 29  2  0  0  0  0
 28 48  1  0  0  0  0
 29 49  1  0  0  0  0
 30 29  1  0  0  0  0
 30 32  1  0  0  0  0
 31 30  2  0  0  0  0
 31 50  1  0  0  0  0
 32 34  1  0  0  0  0
 33 32  1  0  0  0  0
 33 51  1  0  0  0  0
 33 52  1  0  0  0  0
 33 53  1  0  0  0  0
 34 54  1  0  0  0  0
 34 55  1  0  0  0  0
 34 56  1  0  0  0  0
M  END
>  <MODEL>
1

>  <REMARK>
 VINA RESULT:      -7.9      0.000      0.000
  5 active torsions:
  status: ('A' for Active; 'I' for Inactive)
       I    between atoms: N_2  and  C_4 
    1  A    between atoms: C_4  and  C_6 
    2  A    between atoms: C_10  and  N_11 
       I    between atoms: N_11  and  C_13 
       I    between atoms: C_13  and  N_15 
    3  A    between atoms: N_15  and  C_17 
    4  A    between atoms: C_20  and  C_21 
    5  A    between atoms: C_26  and  N_27 

>  <TORSDO>
F 5

$$$$
resistance_project/docking/5319283d3047ac55/Q9UM73_L1196M/docked/molecule_0001_out.pdbqt
 OpenBabel09232609183D

 56 58  0  0  0  0  0  0  0  0999 V2000
   33.6040   46.6770    6.2210 C   0  0  0  0  0  0  0  0  0  0  0  0
   32.5900   46.1200    5.4410 C   0  0  0  0  0  0  0  0  0  0  0  0
   31.2670   46.1260    5.8350 C   0  0  0  0  0  0  0  0  0  0  0  0
   30.9990   46.7260    7.0640 C   0  0  0  0  0  0  0  0  0  0  0  0
   32.0350   47.2770    7.8240 C   0  0  0  0  0  0  0  0  0  0  0  0
   33.3260   47.2540    7.4100 N   0  0  0  0  0  0  0  0  0  0  0  0
   34.0660   47.6630    7.9810 H   0  0  0  0  0  0  0  0  0  0  0  0
   34.9230   46.6010    5.6940 N   0  0  0  0  0  0  0  0  0  0  0  0
   35.9230   45.8440    6.3200 C   0  0  0  0  0  0  0  0  0  0  0  0
   37.2320   45.8620    5.7350 N   0  0  0  0  0  0  0  0  0  0  0  0
   35.6520   45.1840    7.3560 O   0  0  0  0  0  0  0  0  0  0  0  0
   37.4170   46.4160    4.9000 H   0  0  0  0  0  0  0  0  0  0  0  0
   35.1470   47.1100    4.8390 H   0  0  0  0  0  0  0  0  0  0  0  0
   38.2690   45.0950    6.3370 C   0  0  0  0  0  0  0  0  0  0  0  0
   39.2290   45.6410    7.1650 C   0  0  0  0  0  0  0  0  0  0  0  0
   40.2350   44.8960    7.7490 C   0  0  0  0  0  0  0  0  0  0  0  0
   40.3110   43.5470    7.5150 C   0  0  0  0  0  0  0  0  0  0  0  0
   39.3630   42.9770    6.6900 C   0  0  0  0  0  0  0  0  0  0  0  0
   38.3620   43.7220    6.1110 C   0  0  0  0  0  0  0  0  0  0  0  0
   39.4600   41.5400    6.4530 C   0  0  0  0  0  0  0  0  0  0  0  0
   39.5810   40.5980    7.5160 N   0  0  0  0  0  0  0  0  0  0  0  0
   39.5380   39.1850    7.1430 C   0  0  0  0  0  0  0  0  0  0  0  0
   39.6910   40.8950    8.4850 H   0  0  0  0  0  0  0  0  0  0  0  0
   39.4360   41.1120    5.2680 O   0  0  0  0  0  0  0  0  0  0  0  0
   29.6220   46.7450    7.4970 C   0  0  0  0  0  0  0  0  0  0  0  0
   29.1830   45.7190    8.3150 C   0  0  0  0  0  0  0  0  0  0  0  0
   30.1250   44.6410    8.7210 C   0  0  0  0  0  0  0  0  0  0  0  0
   27.8610   45.6840    8.7650 C   0  0  0  0  0  0  0  0  0  0  0  0
   26.9550   46.6830    8.4000 C   0  0  0  0  0  0  0  0  0  0  0  0
   27.3960   47.7060    7.5820 C   0  0  0  0  0  0  0  0  0  0  0  0
   28.7100   47.7200    7.1480 C   0  0  0  0  0  0  0  0  0  0  0  0
   26.5460   48.7700    7.1560 N   0  0  0  0  0  0  0  0  0  0  0  0
   27.0700   49.9830    6.5610 C   0  0  0  0  0  0  0  0  0  0  0  0
   25.1140   48.5990    7.3380 C   0  0  0  0  0  0  0  0  0  0  0  0
   32.8380   45.6881    4.5371 H   0  0  0  0  0  0  0  0  0  0  0  0
   30.9363   45.1097    5.8876 H   0  0  0  0  0  0  0  0  0  0  0  0
   31.8097   47.7159    8.7304 H   0  0  0  0  0  0  0  0  0  0  0  0
   39.1935   46.6544    7.3569 H   0  0  0  0  0  0  0  0  0  0  0  0
   40.9285   45.3541    8.3607 H   0  0  0  0  0  0  0  0  0  0  0  0
   41.0554   42.9748    7.9433 H   0  0  0  0  0  0  0  0  0  0  0  0
   37.6704   43.2586    5.5011 H   0  0  0  0  0  0  0  0  0  0  0  0
   39.4178   39.0994    6.0832 H   0  0  0  0  0  0  0  0  0  0  0  0
   38.7143   38.7112    7.6348 H   0  0  0  0  0  0  0  0  0  0  0  0
   40.4504   38.7103    7.4380 H   0  0  0  0  0  0  0  0  0  0  0  0
   31.0862   44.8258    8.2888 H   0  0  0  0  0  0  0  0  0  0  0  0
   29.7556   43.6969    8.3787 H   0  0  0  0  0  0  0  0  0  0  0  0
   30.2106   44.6251    9.7875 H   0  0  0  0  0  0  0  0  0  0  0  0
   27.5499   44.9112    9.3742 H   0  0  0  0  0  0  0  0  0  0  0  0
   25.9787   46.6576    8.7336 H   0  0  0  0  0  0  0  0  0  0  0  0
   29.0209   48.4920    6.5377 H   0  0  0  0  0  0  0  0  0  0  0  0
   26.2608   50.6399    6.3188 H   0  0  0  0  0  0  0  0  0  0  0  0
   27.6100   49.7388    5.6701 H   0  0  0  0  0  0  0  0  0  0  0  0
   27.7261   50.4660    7.2547 H   0  0  0  0  0  0  0  0  0  0  0  0
   24.6025   49.4669    6.9774 H   0  0  0  0  0  0  0  0  0  0  0  0
   24.9001   48.4653    8.3778 H   0  0  0  0  0  0  0  0  0  0  0  0
   24.7853   47.7390    6.7928 H   0  0  0  0  0  0  0  0  0  0  0  0
  1  6  1  0  0  0  0
  2  3  1  0  0  0  0
  2  1  2  0  0  0  0
  2 35  1  0  0  0  0
  3  4  1  0  0  0  0
  3 36  1  0  0  0  0
  4 25  1  0  0  0  0
  4  5  2  0  0  0  0
  5 37  1  0  0  0  0
  6  5  1  0  0  0  0
  6  7  1  0  0  0  0
  8  1  1  0  0  0  0
  8  9  1  0  0  0  0
  9 11  2  0  0  0  0
 10  9  1  0  0  0  0
 10 14  1  0  0  0  0
 12 10  1  0  0  0  0
 13  8  1  0  0  0  0
 14 15  1  0  0  0  0
 15 16  2  0  0  0  0
 15 38  1  0  0  0  0
 16 39  1  0  0  0  0
 17 16  1  0  0  0  0
 17 40  1  0  0  0  0
 18 17  2  0  0  0  0
 19 14  2  0  0  0  0
 19 18  1  0  0  0  0
 19 41  1  0  0  0  0
 20 18  1  0  0  0  0
 20 21  1  0  0  0  0
 21 23  1  0  0  0  0
 22 21  1  0  0  0  0
 22 42  1  0  0  0  0
 22 43  1  0  0  0  0
 22 44  1  0  0  0  0
 24 20  2  0  0  0  0
 25 26  1  0  0  0  0
 26 27  1  0  0  0  0
 26 28  2  0  0  0  0
 27 45  1  0  0  0  0
 27 46  1  0  0  0  0
 27 47  1  0  0  0  0
 28 48  1  0  0  0  0
 29 28  1  0  0  0  0
 29 49  1  0  0  0  0
 30 29  2  0  0  0  0
 31 25  2  0  0  0  0
 31 30  1  0  0  0  0
 31 50  1  0  0  0  0
 32 34  1  0  0  0  0
 32 30  1  0  0  0  0
 33 32  1  0  0  0  0
 33 51  1  0  0  0  0
 33 52  1  0  0  0  0
 33 53  1  0  0  0  0
 34 54  1  0  0  0  0
 34 55  1  0  0  0  0
 34 56  1  0  0  0  0
M  END
>  <REMARK>
 VINA RESULT:      -7.7      4.755     12.662
  5 active torsions:
  status: ('A' for Active; 'I' for Inactive)
       I    between atoms: N_2  and  C_4 
    1  A    between atoms: C_4  and  C_6 
    2  A    between atoms: C_10  and  N_11 
       I    between atoms: N_11  and  C_13 
       I    between atoms: C_13  and  N_15 
    3  A    between atoms: N_15  and  C_17 
    4  A    between atoms: C_20  and  C_21 
    5  A    between atoms: C_26  and  N_27 

>  <TORSDO>
F 5

$$$$
resistance_project/docking/5319283d3047ac55/Q9UM73_L1196M/docked/molecule_0001_out.pdbqt
 OpenBabel09232609183D

 56 58  0  0  0  0  0  0  0  0999 V2000
   29.5820   45.5030    8.5650 C   0  0  0  0  0  0  0  0  0  0  0  0
   29.8870   44.1420    8.5240 C   0  0  0  0  0  0  0  0  0  0  0  0
   31.1810   43.6790    8.3930 C   0  0  0  0  0  0  0  0  0  0  0  0
   32.1720   44.6540    8.3030 C   0  0  0  0  0  0  0  0  0  0  0  0
   31.8370   46.0110    8.3470 C   0  0  0  0  0  0  0  0  0  0  0  0
   30.5560   46.4350    8.4760 N   0  0  0  0  0  0  0  0  0  0  0  0
   30.3340   47.4300    8.5070 H   0  0  0  0  0  0  0  0  0  0  0  0
   28.2070   45.8400    8.7040 N   0  0  0  0  0  0  0  0  0  0  0  0
   27.6370   46.9080    7.9980 C   0  0  0  0  0  0  0  0  0  0  0  0
   26.2510   47.1950    8.2350 N   0  0  0  0  0  0  0  0  0  0  0  0
   28.3380   47.5740    7.1940 O   0  0  0  0  0  0  0  0  0  0  0  0
   25.7160   46.6400    8.9020 H   0  0  0  0  0  0  0  0  0  0  0  0
   27.6220   45.2900    9.3320 H   0  0  0  0  0  0  0  0  0  0  0  0
   25.6350   48.2650    7.5270 C   0  0  0  0  0  0  0  0  0  0  0  0
   24.4250   48.1420    6.8760 C   0  0  0  0  0  0  0  0  0  0  0  0
   23.8270   49.1820    6.1890 C   0  0  0  0  0  0  0  0  0  0  0  0
   24.4410   50.4070    6.1340 C   0  0  0  0  0  0  0  0  0  0  0  0
   25.6540   50.5550    6.7770 C   0  0  0  0  0  0  0  0  0  0  0  0
   26.2450   49.5180    7.4600 C   0  0  0  0  0  0  0  0  0  0  0  0
   26.2920   51.8660    6.7060 C   0  0  0  0  0  0  0  0  0  0  0  0
   26.8120   52.5240    7.8590 N   0  0  0  0  0  0  0  0  0  0  0  0
   27.5400   53.7700    7.6260 C   0  0  0  0  0  0  0  0  0  0  0  0
   26.6830   52.1440    8.7970 H   0  0  0  0  0  0  0  0  0  0  0  0
   26.3910   52.4400    5.5890 O   0  0  0  0  0  0  0  0  0  0  0  0
   33.5330   44.1940    8.1650 C   0  0  0  0  0  0  0  0  0  0  0  0
   34.1240   43.5750    9.2530 C   0  0  0  0  0  0  0  0  0  0  0  0
   33.3560   43.4030   10.5150 C   0  0  0  0  0  0  0  0  0  0  0  0
   35.4390   43.1090    9.1770 C   0  0  0  0  0  0  0  0  0  0  0  0
   36.1850   43.2570    8.0050 C   0  0  0  0  0  0  0  0  0  0  0  0
   35.5920   43.8750    6.9210 C   0  0  0  0  0  0  0  0  0  0  0  0
   34.2880   44.3300    7.0170 C   0  0  0  0  0  0  0  0  0  0  0  0
   36.2720   44.0720    5.6820 N   0  0  0  0  0  0  0  0  0  0  0  0
   35.6860   44.8290    4.5940 C   0  0  0  0  0  0  0  0  0  0  0  0
   37.5930   43.4820    5.5400 C   0  0  0  0  0  0  0  0  0  0  0  0
   29.1181   43.4573    8.5941 H   0  0  0  0  0  0  0  0  0  0  0  0
   31.3983   43.0689    9.2448 H   0  0  0  0  0  0  0  0  0  0  0  0
   32.5903   46.7131    8.2790 H   0  0  0  0  0  0  0  0  0  0  0  0
   23.9431   47.2298    6.9031 H   0  0  0  0  0  0  0  0  0  0  0  0
   22.9201   49.0368    5.7184 H   0  0  0  0  0  0  0  0  0  0  0  0
   24.0091   51.1952    5.6269 H   0  0  0  0  0  0  0  0  0  0  0  0
   27.1517   49.6686    7.9292 H   0  0  0  0  0  0  0  0  0  0  0  0
   27.5562   53.9829    6.5775 H   0  0  0  0  0  0  0  0  0  0  0  0
   28.5429   53.6696    7.9851 H   0  0  0  0  0  0  0  0  0  0  0  0
   27.0538   54.5695    8.1449 H   0  0  0  0  0  0  0  0  0  0  0  0
   32.3758   43.8148   10.3949 H   0  0  0  0  0  0  0  0  0  0  0  0
   33.8605   43.9092   11.3113 H   0  0  0  0  0  0  0  0  0  0  0  0
   33.2793   42.3612   10.7467 H   0  0  0  0  0  0  0  0  0  0  0  0
   35.8648   42.6495    9.9972 H   0  0  0  0  0  0  0  0  0  0  0  0
   37.1563   42.9127    7.9503 H   0  0  0  0  0  0  0  0  0  0  0  0
   33.8628   44.7898    6.1967 H   0  0  0  0  0  0  0  0  0  0  0  0
   36.3650   44.8492    3.7673 H   0  0  0  0  0  0  0  0  0  0  0  0
   35.4910   45.8293    4.9199 H   0  0  0  0  0  0  0  0  0  0  0  0
   34.7693   44.3674    4.2914 H   0  0  0  0  0  0  0  0  0  0  0  0
   37.9818   43.7074    4.5690 H   0  0  0  0  0  0  0  0  0  0  0  0
   37.5244   42.4209    5.6592 H   0  0  0  0  0  0  0  0  0  0  0  0
   38.2451   43.8834    6.2873 H   0  0  0  0  0  0  0  0  0  0  0  0
  1  8  1  0  0  0  0
  2  1  2  0  0  0  0
  2 35  1  0  0  0  0
  3  2  1  0  0  0  0
  3 36  1  0  0  0  0
  4  5  2  0  0  0  0
  4  3  1  0  0  0  0
  5  6  1  0  0  0  0
  5 37  1  0  0  0  0
  6  7  1  0  0  0  0
  6  1  1  0  0  0  0
  8 13  1  0  0  0  0
  9 10  1  0  0  0  0
  9  8  1  0  0  0  0
 10 12  1  0  0  0  0
 11  9  2  0  0  0  0
 14 10  1  0  0  0  0
 15 14  2  0  0  0  0
 15 38  1  0  0  0  0
 16 15  1  0  0  0  0
 16 39  1  0  0  0  0
 17 16  2  0  0  0  0
 17 18  1  0  0  0  0
 17 40  1  0  0  0  0
 18 19  2  0  0  0  0
 19 14  1  0  0  0  0
 19 41  1  0  0  0  0
 20 18  1  0  0  0  0
 20 21  1  0  0  0  0
 21 23  1  0  0  0  0
 22 21  1  0  0  0  0
 22 42  1  0  0  0  0
 22 43  1  0  0  0  0
 22 44  1  0  0  0  0
 24 20  2  0  0  0  0
 25  4  1  0  0  0  0
 25 26  2  0  0  0  0
 26 27  1  0  0  0  0
 27 45  1  0  0  0  0
 27 46  1  0  0  0  0
 27 47  1  0  0  0  0
 28 26  1  0  0  0  0
 28 48  1  0  0  0  0
 29 28  2  0  0  0  0
 29 49  1  0  0  0  0
 30 31  2  0  0  0  0
 30 29  1  0  0  0  0
 31 25  1  0  0  0  0
 31 50  1  0  0  0  0
 32 30  1  0  0  0  0
 33 32  1  0  0  0  0
 33 51  1  0  0  0  0
 33 52  1  0  0  0  0
 33 53  1  0  0  0  0
 34 32  1  0  0  0  0
 34 54  1  0  0  0  0
 34 55  1  0  0  0  0
 34 56  1  0  0  0  0
M  END
>  <REMARK>
 VINA RESULT:      -7.7      2.724      3.736
  5 active torsions:
  status: ('A' for Active; 'I' for Inactive)
       I    between atoms: N_2  and  C_4 
    1  A    between atoms: C_4  and  C_6 
    2  A    between atoms: C_10  and  N_11 
       I    between atoms: N_11  and  C_13 
       I    between atoms: C_13  and  N_15 
    3  A    between atoms: N_15  and  C_17 
    4  A    between atoms: C_20  and  C_21 
    5  A    between atoms: C_26  and  N_27 

>  <TORSDO>
F 5

$$$$
resistance_project/docking/5319283d3047ac55/Q9UM73_L1196M/docked/molecule_0001_out.pdbqt
 OpenBabel09232609183D

 56 58  0  0  0  0  0  0  0  0999 V2000
   29.0720   46.9010    8.0990 C   0  0  0  0  0  0  0  0  0  0  0  0
   29.5740   45.6010    8.0200 C   0  0  0  0  0  0  0  0  0  0  0  0
   30.9100   45.3380    7.7940 C   0  0  0  0  0  0  0  0  0  0  0  0
   31.7350   46.4530    7.6490 C   0  0  0  0  0  0  0  0  0  0  0  0
   31.2040   47.7430    7.7340 C   0  0  0  0  0  0  0  0  0  0  0  0
   29.8860   47.9690    7.9560 N   0  0  0  0  0  0  0  0  0  0  0  0
   29.5200   48.9190    8.0150 H   0  0  0  0  0  0  0  0  0  0  0  0
   27.6740   47.0260    8.3370 N   0  0  0  0  0  0  0  0  0  0  0  0
   26.8630   47.8440    7.5370 C   0  0  0  0  0  0  0  0  0  0  0  0
   25.4740   47.9360    7.8800 N   0  0  0  0  0  0  0  0  0  0  0  0
   27.3630   48.4620    6.5630 O   0  0  0  0  0  0  0  0  0  0  0  0
   25.1050   47.4280    8.6840 H   0  0  0  0  0  0  0  0  0  0  0  0
   27.2530   46.5090    9.1070 H   0  0  0  0  0  0  0  0  0  0  0  0
   24.6170   48.7480    7.0840 C   0  0  0  0  0  0  0  0  0  0  0  0
   23.5240   48.2520    6.4040 C   0  0  0  0  0  0  0  0  0  0  0  0
   22.6930   49.0400    5.6310 C   0  0  0  0  0  0  0  0  0  0  0  0
   22.9390   50.3840    5.5150 C   0  0  0  0  0  0  0  0  0  0  0  0
   24.0270   50.9050    6.1860 C   0  0  0  0  0  0  0  0  0  0  0  0
   24.8520   50.1170    6.9550 C   0  0  0  0  0  0  0  0  0  0  0  0
   24.2740   52.3370    6.0510 C   0  0  0  0  0  0  0  0  0  0  0  0
   24.4510   53.1910    7.1780 N   0  0  0  0  0  0  0  0  0  0  0  0
   24.8190   54.5770    6.8960 C   0  0  0  0  0  0  0  0  0  0  0  0
   24.3290   52.8510    8.1330 H   0  0  0  0  0  0  0  0  0  0  0  0
   24.3330   52.8420    4.8980 O   0  0  0  0  0  0  0  0  0  0  0  0
   33.1370   46.2030    7.4120 C   0  0  0  0  0  0  0  0  0  0  0  0
   33.5670   46.1050    6.1000 C   0  0  0  0  0  0  0  0  0  0  0  0
   32.5920   46.2560    4.9880 C   0  0  0  0  0  0  0  0  0  0  0  0
   34.9120   45.8630    5.8100 C   0  0  0  0  0  0  0  0  0  0  0  0
   35.8510   45.7170    6.8350 C   0  0  0  0  0  0  0  0  0  0  0  0
   35.4180   45.8150    8.1430 C   0  0  0  0  0  0  0  0  0  0  0  0
   34.0800   46.0540    8.4090 C   0  0  0  0  0  0  0  0  0  0  0  0
   36.3000   45.6790    9.2570 N   0  0  0  0  0  0  0  0  0  0  0  0
   37.7380   45.6170    9.0970 C   0  0  0  0  0  0  0  0  0  0  0  0
   35.7030   45.6040   10.5800 C   0  0  0  0  0  0  0  0  0  0  0  0
   28.9232   44.8083    8.1346 H   0  0  0  0  0  0  0  0  0  0  0  0
   31.2756   44.7651    8.6205 H   0  0  0  0  0  0  0  0  0  0  0  0
   31.8367   48.5508    7.6240 H   0  0  0  0  0  0  0  0  0  0  0  0
   23.3170   47.2436    6.4762 H   0  0  0  0  0  0  0  0  0  0  0  0
   21.8884   48.6177    5.1417 H   0  0  0  0  0  0  0  0  0  0  0  0
   22.3286   50.9882    4.9428 H   0  0  0  0  0  0  0  0  0  0  0  0
   25.6550   50.5442    7.4426 H   0  0  0  0  0  0  0  0  0  0  0  0
   24.8933   54.7181    5.8379 H   0  0  0  0  0  0  0  0  0  0  0  0
   25.7619   54.7955    7.3521 H   0  0  0  0  0  0  0  0  0  0  0  0
   24.0712   55.2321    7.2915 H   0  0  0  0  0  0  0  0  0  0  0  0
   33.0996   46.1510    4.0519 H   0  0  0  0  0  0  0  0  0  0  0  0
   32.1377   47.2233    5.0409 H   0  0  0  0  0  0  0  0  0  0  0  0
   31.8370   45.5024    5.0708 H   0  0  0  0  0  0  0  0  0  0  0  0
   35.2161   45.7911    4.8265 H   0  0  0  0  0  0  0  0  0  0  0  0
   36.8446   45.5401    6.6196 H   0  0  0  0  0  0  0  0  0  0  0  0
   33.7756   46.1235    9.3926 H   0  0  0  0  0  0  0  0  0  0  0  0
   37.9846   45.6874    8.0582 H   0  0  0  0  0  0  0  0  0  0  0  0
   38.1007   44.6892    9.4876 H   0  0  0  0  0  0  0  0  0  0  0  0
   38.1912   46.4286    9.6270 H   0  0  0  0  0  0  0  0  0  0  0  0
   34.6382   45.6662   10.4949 H   0  0  0  0  0  0  0  0  0  0  0  0
   36.0609   46.4150   11.1793 H   0  0  0  0  0  0  0  0  0  0  0  0
   35.9704   44.6756   11.0398 H   0  0  0  0  0  0  0  0  0  0  0  0
  1  8  1  0  0  0  0
  2  1  2  0  0  0  0
  2 35  1  0  0  0  0
  3  2  1  0  0  0  0
  3 36  1  0  0  0  0
  4  5  2  0  0  0  0
  4  3  1  0  0  0  0
  5  6  1  0  0  0  0
  5 37  1  0  0  0  0
  6  7  1  0  0  0  0
  6  1  1  0  0  0  0
  8 13  1  0  0  0  0
  9 10  1  0  0  0  0
  9  8  1  0  0  0  0
 10 12  1  0  0  0  0
 11  9  2  0  0  0  0
 14 10  1  0  0  0  0
 15 14  2  0  0  0  0
 15 38  1  0  0  0  0
 16 15  1  0  0  0  0
 16 39  1  0  0  0  0
 17 16  2  0  0  0  0
 17 18  1  0  0  0  0
 17 40  1  0  0  0  0
 18 19  2  0  0  0  0
 19 14  1  0  0  0  0
 19 41  1  0  0  0  0
 20 18  1  0  0  0  0
 20 21  1  0  0  0  0
 21 23  1  0  0  0  0
 22 21  1  0  0  0  0
 22 42  1  0  0  0  0
 22 43  1  0  0  0  0
 22 44  1  0  0  0  0
 24 20  2  0  0  0  0
 25  4  1  0  0  0  0
 25 31  2  0  0  0  0
 26 25  1  0  0  0  0
 27 26  1  0  0  0  0
 27 45  1  0  0  0  0
 27 46  1  0  0  0  0
 27 47  1  0  0  0  0
 28 26  2  0  0  0  0
 28 29  1  0  0  0  0
 28 48  1  0  0  0  0
 29 30  2  0  0  0  0
 29 49  1  0  0  0  0
 30 31  1  0  0  0  0
 30 32  1  0  0  0  0
 31 50  1  0  0  0  0
 32 34  1  0  0  0  0
 33 32  1  0  0  0  0
 33 51  1  0  0  0  0
 33 52  1  0  0  0  0
 33 53  1  0  0  0  0
 34 54  1  0  0  0  0
 34 55  1  0  0  0  0
 34 56  1  0  0  0  0
M  END
>  <REMARK>
 VINA RESULT:      -7.6      2.156      2.755
  5 active torsions:
  status: ('A' for Active; 'I' for Inactive)
       I    between atoms: N_2  and  C_4 
    1  A    between atoms: C_4  and  C_6 
    2  A    between atoms: C_10  and  N_11 
       I    between atoms: N_11  and  C_13 
       I    between atoms: C_13  and  N_15 
    3  A    between atoms: N_15  and  C_17 
    4  A    between atoms: C_20  and  C_21 
    5  A    between atoms: C_26  and  N_27 

>  <TORSDO>
F 5

$$$$
resistance_project/docking/5319283d3047ac55/Q9UM73_L1196M/docked/molecule_0001_out.pdbqt
 OpenBabel09232609183D

 56 58  0  0  0  0  0  0  0  0999 V2000
   29.0710   47.7250    6.9810 C   0  0  0  0  0  0  0  0  0  0  0  0
   28.8830   47.1850    8.2530 C   0  0  0  0  0  0  0  0  0  0  0  0
   29.7950   46.3240    8.8320 C   0  0  0  0  0  0  0  0  0  0  0  0
   30.9210   46.0250    8.0670 C   0  0  0  0  0  0  0  0  0  0  0  0
   31.0830   46.5820    6.7950 C   0  0  0  0  0  0  0  0  0  0  0  0
   30.1680   47.4240    6.2530 N   0  0  0  0  0  0  0  0  0  0  0  0
   30.3070   47.8200    5.3240 H   0  0  0  0  0  0  0  0  0  0  0  0
   28.0520   48.5990    6.5070 N   0  0  0  0  0  0  0  0  0  0  0  0
   28.2590   49.9810    6.4020 C   0  0  0  0  0  0  0  0  0  0  0  0
   27.1580   50.7830    5.9520 N   0  0  0  0  0  0  0  0  0  0  0  0
   29.3780   50.4720    6.6980 O   0  0  0  0  0  0  0  0  0  0  0  0
   26.2610   50.3520    5.7300 H   0  0  0  0  0  0  0  0  0  0  0  0
   27.1490   48.2090    6.2390 H   0  0  0  0  0  0  0  0  0  0  0  0
   27.3350   52.1900    5.8220 C   0  0  0  0  0  0  0  0  0  0  0  0
   27.6770   52.8010    4.6330 C   0  0  0  0  0  0  0  0  0  0  0  0
   27.8490   54.1660    4.5070 C   0  0  0  0  0  0  0  0  0  0  0  0
   27.6770   54.9800    5.5970 C   0  0  0  0  0  0  0  0  0  0  0  0
   27.3340   54.3930    6.7980 C   0  0  0  0  0  0  0  0  0  0  0  0
   27.1640   53.0330    6.9190 C   0  0  0  0  0  0  0  0  0  0  0  0
   27.1560   55.2750    7.9470 C   0  0  0  0  0  0  0  0  0  0  0  0
   28.2190   55.5830    8.8450 N   0  0  0  0  0  0  0  0  0  0  0  0
   27.9360   56.5810    9.8750 C   0  0  0  0  0  0  0  0  0  0  0  0
   29.1310   55.1300    8.7720 H   0  0  0  0  0  0  0  0  0  0  0  0
   26.0240   55.7880    8.1560 O   0  0  0  0  0  0  0  0  0  0  0  0
   31.8890   45.1270    8.6510 C   0  0  0  0  0  0  0  0  0  0  0  0
   31.5340   43.7980    8.8050 C   0  0  0  0  0  0  0  0  0  0  0  0
   30.1880   43.3370    8.3720 C   0  0  0  0  0  0  0  0  0  0  0  0
   32.4300   42.8840    9.3640 C   0  0  0  0  0  0  0  0  0  0  0  0
   33.7010   43.2890    9.7800 C   0  0  0  0  0  0  0  0  0  0  0  0
   34.0520   44.6160    9.6250 C   0  0  0  0  0  0  0  0  0  0  0  0
   33.1490   45.5060    9.0690 C   0  0  0  0  0  0  0  0  0  0  0  0
   35.3260   45.1250   10.0190 N   0  0  0  0  0  0  0  0  0  0  0  0
   36.4790   45.0760    9.1430 C   0  0  0  0  0  0  0  0  0  0  0  0
   35.4350   45.7040   11.3480 C   0  0  0  0  0  0  0  0  0  0  0  0
   28.0326   47.4375    8.7803 H   0  0  0  0  0  0  0  0  0  0  0  0
   30.1286   46.7669    9.7471 H   0  0  0  0  0  0  0  0  0  0  0  0
   31.9268   46.3447    6.2503 H   0  0  0  0  0  0  0  0  0  0  0  0
   27.8107   52.2099    3.7977 H   0  0  0  0  0  0  0  0  0  0  0  0
   28.1065   54.5724    3.5940 H   0  0  0  0  0  0  0  0  0  0  0  0
   27.8004   56.0018    5.5215 H   0  0  0  0  0  0  0  0  0  0  0  0
   26.9064   52.6316    7.8342 H   0  0  0  0  0  0  0  0  0  0  0  0
   26.9280   56.9247    9.7712 H   0  0  0  0  0  0  0  0  0  0  0  0
   28.6075   57.4069    9.7655 H   0  0  0  0  0  0  0  0  0  0  0  0
   28.0654   56.1420   10.8422 H   0  0  0  0  0  0  0  0  0  0  0  0
   29.6399   44.1637    7.9707 H   0  0  0  0  0  0  0  0  0  0  0  0
   29.6617   42.9342    9.2120 H   0  0  0  0  0  0  0  0  0  0  0  0
   30.2940   42.5815    7.6218 H   0  0  0  0  0  0  0  0  0  0  0  0
   32.1497   41.8966    9.4712 H   0  0  0  0  0  0  0  0  0  0  0  0
   34.3619   42.6127   10.1933 H   0  0  0  0  0  0  0  0  0  0  0  0
   33.4293   46.4935    8.9626 H   0  0  0  0  0  0  0  0  0  0  0  0
   36.2035   44.6180    8.2161 H   0  0  0  0  0  0  0  0  0  0  0  0
   37.2552   44.5038    9.6067 H   0  0  0  0  0  0  0  0  0  0  0  0
   36.8298   46.0700    8.9593 H   0  0  0  0  0  0  0  0  0  0  0  0
   36.4373   46.0426   11.5084 H   0  0  0  0  0  0  0  0  0  0  0  0
   35.1867   44.9647   12.0806 H   0  0  0  0  0  0  0  0  0  0  0  0
   34.7612   46.5309   11.4332 H   0  0  0  0  0  0  0  0  0  0  0  0
  1  2  2  0  0  0  0
  2  3  1  0  0  0  0
  2 35  1  0  0  0  0
  3 36  1  0  0  0  0
  4 25  1  0  0  0  0
  4  3  1  0  0  0  0
  5  4  2  0  0  0  0
  5 37  1  0  0  0  0
  6  5  1  0  0  0  0
  6  1  1  0  0  0  0
  7  6  1  0  0  0  0
  8  1  1  0  0  0  0
  9  8  1  0  0  0  0
  9 11  2  0  0  0  0
 10  9  1  0  0  0  0
 12 10  1  0  0  0  0
 13  8  1  0  0  0  0
 14 10  1  0  0  0  0
 14 19  2  0  0  0  0
 15 14  1  0  0  0  0
 15 38  1  0  0  0  0
 16 15  2  0  0  0  0
 16 17  1  0  0  0  0
 16 39  1  0  0  0  0
 17 18  2  0  0  0  0
 17 40  1  0  0  0  0
 18 19  1  0  0  0  0
 18 20  1  0  0  0  0
 19 41  1  0  0  0  0
 20 24  2  0  0  0  0
 20 21  1  0  0  0  0
 21 22  1  0  0  0  0
 22 42  1  0  0  0  0
 22 43  1  0  0  0  0
 22 44  1  0  0  0  0
 23 21  1  0  0  0  0
 25 26  2  0  0  0  0
 25 31  1  0  0  0  0
 26 28  1  0  0  0  0
 27 26  1  0  0  0  0
 27 45  1  0  0  0  0
 27 46  1  0  0  0  0
 27 47  1  0  0  0  0
 28 29  2  0  0  0  0
 28 48  1  0  0  0  0
 29 49  1  0  0  0  0
 30 29  1  0  0  0  0
 30 32  1  0  0  0  0
 31 30  2  0  0  0  0
 31 50  1  0  0  0  0
 32 34  1  0  0  0  0
 33 32  1  0  0  0  0
 33 51  1  0  0  0  0
 33 52  1  0  0  0  0
 33 53  1  0  0  0  0
 34 54  1  0  0  0  0
 34 55  1  0  0  0  0
 34 56  1  0  0  0  0
M  END
>  <REMARK>
 VINA RESULT:      -7.5      3.769      4.326
  5 active torsions:
  status: ('A' for Active; 'I' for Inactive)
       I    between atoms: N_2  and  C_4 
    1  A    between atoms: C_4  and  C_6 
    2  A    between atoms: C_10  and  N_11 
       I    between atoms: N_11  and  C_13 
       I    between atoms: C_13  and  N_15 
    3  A    between atoms: N_15  and  C_17 
    4  A    between atoms: C_20  and  C_21 
    5  A    between atoms: C_26  and  N_27 

>  <TORSDO>
F 5

$$$$
resistance_project/docking/5319283d3047ac55/Q9UM73_L1196M/docked/molecule_0001_out.pdbqt
 OpenBabel09232609183D

 56 58  0  0  0  0  0  0  0  0999 V2000
   28.0560   47.0310    8.1290 C   0  0  0  0  0  0  0  0  0  0  0  0
   28.3220   45.6710    8.2920 C   0  0  0  0  0  0  0  0  0  0  0  0
   29.6030   45.1590    8.2490 C   0  0  0  0  0  0  0  0  0  0  0  0
   30.6230   46.0840    8.0330 C   0  0  0  0  0  0  0  0  0  0  0  0
   30.3260   47.4410    7.8740 C   0  0  0  0  0  0  0  0  0  0  0  0
   29.0560   47.9140    7.9210 N   0  0  0  0  0  0  0  0  0  0  0  0
   28.8630   48.9080    7.8030 H   0  0  0  0  0  0  0  0  0  0  0  0
   26.6890   47.4210    8.1970 N   0  0  0  0  0  0  0  0  0  0  0  0
   26.1240   48.2870    7.2500 C   0  0  0  0  0  0  0  0  0  0  0  0
   24.7480   48.6530    7.4260 N   0  0  0  0  0  0  0  0  0  0  0  0
   26.8210   48.7110    6.2930 O   0  0  0  0  0  0  0  0  0  0  0  0
   24.2160   48.2980    8.2190 H   0  0  0  0  0  0  0  0  0  0  0  0
   26.1070   47.0620    8.9530 H   0  0  0  0  0  0  0  0  0  0  0  0
   24.1370   49.5210    6.4770 C   0  0  0  0  0  0  0  0  0  0  0  0
   23.2730   49.0800    5.4960 C   0  0  0  0  0  0  0  0  0  0  0  0
   22.6800   49.9230    4.5760 C   0  0  0  0  0  0  0  0  0  0  0  0
   22.9430   51.2680    4.6130 C   0  0  0  0  0  0  0  0  0  0  0  0
   23.8040   51.7350    5.5850 C   0  0  0  0  0  0  0  0  0  0  0  0
   24.3920   50.8920    6.5000 C   0  0  0  0  0  0  0  0  0  0  0  0
   24.0710   53.1700    5.6090 C   0  0  0  0  0  0  0  0  0  0  0  0
   25.3740   53.6990    5.8420 N   0  0  0  0  0  0  0  0  0  0  0  0
   25.5230   55.1470    5.7100 C   0  0  0  0  0  0  0  0  0  0  0  0
   26.1610   53.0990    6.0870 H   0  0  0  0  0  0  0  0  0  0  0  0
   23.1200   53.9730    5.4170 O   0  0  0  0  0  0  0  0  0  0  0  0
   31.9720   45.5720    7.9840 C   0  0  0  0  0  0  0  0  0  0  0  0
   32.6220   45.5670    6.7620 C   0  0  0  0  0  0  0  0  0  0  0  0
   31.9260   46.0790    5.5510 C   0  0  0  0  0  0  0  0  0  0  0  0
   33.9280   45.0830    6.6550 C   0  0  0  0  0  0  0  0  0  0  0  0
   34.6060   44.5950    7.7750 C   0  0  0  0  0  0  0  0  0  0  0  0
   33.9540   44.6020    8.9930 C   0  0  0  0  0  0  0  0  0  0  0  0
   32.6590   45.0860    9.0780 C   0  0  0  0  0  0  0  0  0  0  0  0
   34.5620   44.1250   10.1930 N   0  0  0  0  0  0  0  0  0  0  0  0
   34.6870   44.9540   11.3750 C   0  0  0  0  0  0  0  0  0  0  0  0
   35.0620   42.7600   10.1950 C   0  0  0  0  0  0  0  0  0  0  0  0
   27.5329   45.0250    8.4503 H   0  0  0  0  0  0  0  0  0  0  0  0
   29.7933   44.6738    9.1835 H   0  0  0  0  0  0  0  0  0  0  0  0
   31.0997   48.1053    7.7155 H   0  0  0  0  0  0  0  0  0  0  0  0
   23.0593   48.0716    5.4470 H   0  0  0  0  0  0  0  0  0  0  0  0
   22.0401   49.5409    3.8621 H   0  0  0  0  0  0  0  0  0  0  0  0
   22.5096   51.9126    3.9335 H   0  0  0  0  0  0  0  0  0  0  0  0
   25.0301   51.2794    7.2126 H   0  0  0  0  0  0  0  0  0  0  0  0
   24.5801   55.5803    5.4491 H   0  0  0  0  0  0  0  0  0  0  0  0
   26.2390   55.3636    4.9449 H   0  0  0  0  0  0  0  0  0  0  0  0
   25.8590   55.5572    6.6394 H   0  0  0  0  0  0  0  0  0  0  0  0
   32.5762   45.9983    4.7051 H   0  0  0  0  0  0  0  0  0  0  0  0
   31.6596   47.1046    5.6996 H   0  0  0  0  0  0  0  0  0  0  0  0
   31.0416   45.5023    5.3774 H   0  0  0  0  0  0  0  0  0  0  0  0
   34.3984   45.0859    5.7364 H   0  0  0  0  0  0  0  0  0  0  0  0
   35.5709   44.2378    7.6943 H   0  0  0  0  0  0  0  0  0  0  0  0
   32.1887   45.0831    9.9966 H   0  0  0  0  0  0  0  0  0  0  0  0
   34.2643   45.9176   11.1811 H   0  0  0  0  0  0  0  0  0  0  0  0
   35.7213   45.0623   11.6269 H   0  0  0  0  0  0  0  0  0  0  0  0
   34.1677   44.4941   12.1897 H   0  0  0  0  0  0  0  0  0  0  0  0
   34.8800   42.3121    9.2405 H   0  0  0  0  0  0  0  0  0  0  0  0
   34.5603   42.1975   10.9544 H   0  0  0  0  0  0  0  0  0  0  0  0
   36.1138   42.7657   10.3916 H   0  0  0  0  0  0  0  0  0  0  0  0
  1  8  1  0  0  0  0
  1  2  2  0  0  0  0
  2 35  1  0  0  0  0
  3  2  1  0  0  0  0
  3 36  1  0  0  0  0
  4  3  1  0  0  0  0
  5  6  1  0  0  0  0
  5  4  2  0  0  0  0
  5 37  1  0  0  0  0
  6  1  1  0  0  0  0
  7  6  1  0  0  0  0
  8 13  1  0  0  0  0
  9 10  1  0  0  0  0
  9  8  1  0  0  0  0
 10 12  1  0  0  0  0
 11  9  2  0  0  0  0
 14 19  1  0  0  0  0
 14 10  1  0  0  0  0
 15 14  2  0  0  0  0
 15 38  1  0  0  0  0
 16 17  2  0  0  0  0
 16 15  1  0  0  0  0
 16 39  1  0  0  0  0
 17 18  1  0  0  0  0
 17 40  1  0  0  0  0
 18 20  1  0  0  0  0
 18 19  2  0  0  0  0
 19 41  1  0  0  0  0
 20 21  1  0  0  0  0
 21 23  1  0  0  0  0
 22 21  1  0  0  0  0
 22 42  1  0  0  0  0
 22 43  1  0  0  0  0
 22 44  1  0  0  0  0
 24 20  2  0  0  0  0
 25  4  1  0  0  0  0
 25 31  2  0  0  0  0
 26 25  1  0  0  0  0
 27 26  1  0  0  0  0
 27 45  1  0  0  0  0
 27 46  1  0  0  0  0
 27 47  1  0  0  0  0
 28 26  2  0  0  0  0
 28 29  1  0  0  0  0
 28 48  1  0  0  0  0
 29 30  2  0  0  0  0
 29 49  1  0  0  0  0
 30 31  1  0  0  0  0
 30 32  1  0  0  0  0
 31 50  1  0  0  0  0
 32 34  1  0  0  0  0
 32 33  1  0  0  0  0
 33 51  1  0  0  0  0
 33 52  1  0  0  0  0
 33 53  1  0  0  0  0
 34 54  1  0  0  0  0
 34 55  1  0  0  0  0
 34 56  1  0  0  0  0
M  END
>  <REMARK>
 VINA RESULT:      -7.5      2.179      2.730
  5 active torsions:
  status: ('A' for Active; 'I' for Inactive)
       I    between atoms: N_2  and  C_4 
    1  A    between atoms: C_4  and  C_6 
    2  A    between atoms: C_10  and  N_11 
       I    between atoms: N_11  and  C_13 
       I    between atoms: C_13  and  N_15 
    3  A    between atoms: N_15  and  C_17 
    4  A    between atoms: C_20  and  C_21 
    5  A    between atoms: C_26  and  N_27 

>  <TORSDO>
F 5

$$$$
resistance_project/docking/5319283d3047ac55/Q9UM73_L1196M/docked/molecule_0001_out.pdbqt
 OpenBabel09232609183D

 56 58  0  0  0  0  0  0  0  0999 V2000
   30.5170   49.3660    6.4340 C   0  0  0  0  0  0  0  0  0  0  0  0
   31.2620   49.1730    7.5980 C   0  0  0  0  0  0  0  0  0  0  0  0
   31.3200   47.9540    8.2440 C   0  0  0  0  0  0  0  0  0  0  0  0
   30.5870   46.9210    7.6640 C   0  0  0  0  0  0  0  0  0  0  0  0
   29.8500   47.1430    6.4970 C   0  0  0  0  0  0  0  0  0  0  0  0
   29.8120   48.3520    5.8850 N   0  0  0  0  0  0  0  0  0  0  0  0
   29.2690   48.4920    5.0340 H   0  0  0  0  0  0  0  0  0  0  0  0
   30.5470   50.6730    5.8720 N   0  0  0  0  0  0  0  0  0  0  0  0
   29.4200   51.5060    5.8880 C   0  0  0  0  0  0  0  0  0  0  0  0
   29.5370   52.7910    5.2620 N   0  0  0  0  0  0  0  0  0  0  0  0
   28.3590   51.1150    6.4380 O   0  0  0  0  0  0  0  0  0  0  0  0
   30.4100   53.0710    4.8160 H   0  0  0  0  0  0  0  0  0  0  0  0
   31.4100   51.0110    5.4470 H   0  0  0  0  0  0  0  0  0  0  0  0
   28.4160   53.6680    5.2690 C   0  0  0  0  0  0  0  0  0  0  0  0
   27.6880   53.9730    4.1370 C   0  0  0  0  0  0  0  0  0  0  0  0
   26.6000   54.8250    4.1440 C   0  0  0  0  0  0  0  0  0  0  0  0
   26.1990   55.4110    5.3170 C   0  0  0  0  0  0  0  0  0  0  0  0
   26.9120   55.1230    6.4640 C   0  0  0  0  0  0  0  0  0  0  0  0
   27.9940   54.2740    6.4520 C   0  0  0  0  0  0  0  0  0  0  0  0
   26.4700   55.7570    7.7020 C   0  0  0  0  0  0  0  0  0  0  0  0
   26.6910   55.1680    8.9810 N   0  0  0  0  0  0  0  0  0  0  0  0
   26.3140   55.9700   10.1430 C   0  0  0  0  0  0  0  0  0  0  0  0
   27.0910   54.2350    9.0800 H   0  0  0  0  0  0  0  0  0  0  0  0
   25.8740   56.8650    7.6440 O   0  0  0  0  0  0  0  0  0  0  0  0
   30.6320   45.6370    8.3230 C   0  0  0  0  0  0  0  0  0  0  0  0
   29.4920   45.2000    8.9750 C   0  0  0  0  0  0  0  0  0  0  0  0
   28.2710   46.0500    8.9810 C   0  0  0  0  0  0  0  0  0  0  0  0
   29.4780   43.9660    9.6300 C   0  0  0  0  0  0  0  0  0  0  0  0
   30.6100   43.1470    9.6400 C   0  0  0  0  0  0  0  0  0  0  0  0
   31.7460   43.5870    8.9880 C   0  0  0  0  0  0  0  0  0  0  0  0
   31.7390   44.8130    8.3460 C   0  0  0  0  0  0  0  0  0  0  0  0
   32.9500   42.8220    8.9430 N   0  0  0  0  0  0  0  0  0  0  0  0
   33.7190   42.5270   10.1360 C   0  0  0  0  0  0  0  0  0  0  0  0
   33.3910   42.3400    7.6450 C   0  0  0  0  0  0  0  0  0  0  0  0
   31.7883   49.9695    7.9899 H   0  0  0  0  0  0  0  0  0  0  0  0
   30.9568   48.0939    9.2407 H   0  0  0  0  0  0  0  0  0  0  0  0
   29.3168   46.3600    6.0876 H   0  0  0  0  0  0  0  0  0  0  0  0
   27.9698   53.5440    3.2417 H   0  0  0  0  0  0  0  0  0  0  0  0
   26.0903   55.0198    3.2681 H   0  0  0  0  0  0  0  0  0  0  0  0
   25.3880   56.0487    5.3419 H   0  0  0  0  0  0  0  0  0  0  0  0
   28.5006   54.0828    7.3305 H   0  0  0  0  0  0  0  0  0  0  0  0
   25.9178   56.9084    9.8153 H   0  0  0  0  0  0  0  0  0  0  0  0
   27.1760   56.1405   10.7536 H   0  0  0  0  0  0  0  0  0  0  0  0
   25.5722   55.4484   10.7109 H   0  0  0  0  0  0  0  0  0  0  0  0
   28.4610   46.9510    8.4360 H   0  0  0  0  0  0  0  0  0  0  0  0
   28.0098   46.2919    9.9900 H   0  0  0  0  0  0  0  0  0  0  0  0
   27.4641   45.5185    8.5213 H   0  0  0  0  0  0  0  0  0  0  0  0
   28.6204   43.6554   10.1127 H   0  0  0  0  0  0  0  0  0  0  0  0
   30.5979   42.2350   10.1229 H   0  0  0  0  0  0  0  0  0  0  0  0
   32.5971   45.1240    7.8645 H   0  0  0  0  0  0  0  0  0  0  0  0
   34.5772   41.9450    9.8723 H   0  0  0  0  0  0  0  0  0  0  0  0
   33.1124   41.9763   10.8243 H   0  0  0  0  0  0  0  0  0  0  0  0
   34.0349   43.4420   10.5920 H   0  0  0  0  0  0  0  0  0  0  0  0
   32.6987   42.6564    6.8930 H   0  0  0  0  0  0  0  0  0  0  0  0
   33.4387   41.2712    7.6588 H   0  0  0  0  0  0  0  0  0  0  0  0
   34.3603   42.7375    7.4274 H   0  0  0  0  0  0  0  0  0  0  0  0
  1  2  2  0  0  0  0
  2  3  1  0  0  0  0
  2 35  1  0  0  0  0
  3 36  1  0  0  0  0
  4  3  1  0  0  0  0
  4 25  1  0  0  0  0
  5  4  2  0  0  0  0
  5 37  1  0  0  0  0
  6  1  1  0  0  0  0
  6  5  1  0  0  0  0
  7  6  1  0  0  0  0
  8  9  1  0  0  0  0
  8  1  1  0  0  0  0
  9 11  2  0  0  0  0
 10 14  1  0  0  0  0
 10  9  1  0  0  0  0
 12 10  1  0  0  0  0
 13  8  1  0  0  0  0
 14 19  2  0  0  0  0
 15 16  2  0  0  0  0
 15 14  1  0  0  0  0
 15 38  1  0  0  0  0
 16 17  1  0  0  0  0
 16 39  1  0  0  0  0
 17 18  2  0  0  0  0
 17 40  1  0  0  0  0
 18 20  1  0  0  0  0
 19 18  1  0  0  0  0
 19 41  1  0  0  0  0
 20 21  1  0  0  0  0
 21 23  1  0  0  0  0
 21 22  1  0  0  0  0
 22 42  1  0  0  0  0
 22 43  1  0  0  0  0
 22 44  1  0  0  0  0
 24 20  2  0  0  0  0
 25 31  2  0  0  0  0
 25 26  1  0  0  0  0
 26 27  1  0  0  0  0
 26 28  2  0  0  0  0
 27 45  1  0  0  0  0
 27 46  1  0  0  0  0
 27 47  1  0  0  0  0
 28 29  1  0  0  0  0
 28 48  1  0  0  0  0
 29 49  1  0  0  0  0
 30 29  2  0  0  0  0
 31 30  1  0  0  0  0
 31 50  1  0  0  0  0
 32 30  1  0  0  0  0
 32 33  1  0  0  0  0
 33 51  1  0  0  0  0
 33 52  1  0  0  0  0
 33 53  1  0  0  0  0
 34 32  1  0  0  0  0
 34 54  1  0  0  0  0
 34 55  1  0  0  0  0
 34 56  1  0  0  0  0
M  END
>  <REMARK>
 VINA RESULT:      -7.4      4.334      4.931
  5 active torsions:
  status: ('A' for Active; 'I' for Inactive)
       I    between atoms: N_2  and  C_4 
    1  A    between atoms: C_4  and  C_6 
    2  A    between atoms: C_10  and  N_11 
       I    between atoms: N_11  and  C_13 
       I    between atoms: C_13  and  N_15 
    3  A    between atoms: N_15  and  C_17 
    4  A    between atoms: C_20  and  C_21 
    5  A    between atoms: C_26  and  N_27 

>  <TORSDO>
F 5

$$$$
resistance_project/docking/5319283d3047ac55/Q9UM73_L1196M/docked/molecule_0001_out.pdbqt
 OpenBabel09232609183D

 56 58  0  0  0  0  0  0  0  0999 V2000
   28.9740   49.5440    6.1480 C   0  0  0  0  0  0  0  0  0  0  0  0
   29.6110   50.7150    5.7370 C   0  0  0  0  0  0  0  0  0  0  0  0
   29.0450   51.9630    5.9100 C   0  0  0  0  0  0  0  0  0  0  0  0
   27.7940   51.9850    6.5240 C   0  0  0  0  0  0  0  0  0  0  0  0
   27.1800   50.7950    6.9250 C   0  0  0  0  0  0  0  0  0  0  0  0
   27.7610   49.5840    6.7410 N   0  0  0  0  0  0  0  0  0  0  0  0
   27.2960   48.7280    7.0420 H   0  0  0  0  0  0  0  0  0  0  0  0
   29.6710   48.3270    5.9070 N   0  0  0  0  0  0  0  0  0  0  0  0
   29.9600   47.4280    6.9440 C   0  0  0  0  0  0  0  0  0  0  0  0
   30.7020   46.2470    6.6090 N   0  0  0  0  0  0  0  0  0  0  0  0
   29.5700   47.6740    8.1140 O   0  0  0  0  0  0  0  0  0  0  0  0
   31.0100   46.0850    5.6510 H   0  0  0  0  0  0  0  0  0  0  0  0
   29.9690   48.1030    4.9580 H   0  0  0  0  0  0  0  0  0  0  0  0
   31.0030   45.3060    7.6340 C   0  0  0  0  0  0  0  0  0  0  0  0
   30.1460   44.2880    7.9990 C   0  0  0  0  0  0  0  0  0  0  0  0
   30.4390   43.3740    8.9940 C   0  0  0  0  0  0  0  0  0  0  0  0
   31.6300   43.4560    9.6680 C   0  0  0  0  0  0  0  0  0  0  0  0
   32.5050   44.4660    9.3210 C   0  0  0  0  0  0  0  0  0  0  0  0
   32.2090   45.3730    8.3300 C   0  0  0  0  0  0  0  0  0  0  0  0
   33.7670   44.5370   10.0490 C   0  0  0  0  0  0  0  0  0  0  0  0
   34.5220   45.7420   10.1520 N   0  0  0  0  0  0  0  0  0  0  0  0
   35.6990   45.7030   11.0180 C   0  0  0  0  0  0  0  0  0  0  0  0
   34.2550   46.5870    9.6470 H   0  0  0  0  0  0  0  0  0  0  0  0
   34.2100   43.5000   10.6110 O   0  0  0  0  0  0  0  0  0  0  0  0
   27.1830   53.2790    6.7160 C   0  0  0  0  0  0  0  0  0  0  0  0
   26.2940   53.7280    5.7550 C   0  0  0  0  0  0  0  0  0  0  0  0
   25.9960   52.8810    4.5680 C   0  0  0  0  0  0  0  0  0  0  0  0
   25.6720   54.9720    5.8880 C   0  0  0  0  0  0  0  0  0  0  0  0
   25.9330   55.7880    6.9910 C   0  0  0  0  0  0  0  0  0  0  0  0
   26.8210   55.3370    7.9480 C   0  0  0  0  0  0  0  0  0  0  0  0
   27.4260   54.1010    7.7970 C   0  0  0  0  0  0  0  0  0  0  0  0
   27.1510   56.0990    9.1100 N   0  0  0  0  0  0  0  0  0  0  0  0
   28.5240   56.3510    9.5000 C   0  0  0  0  0  0  0  0  0  0  0  0
   26.0520   56.6230    9.9030 C   0  0  0  0  0  0  0  0  0  0  0  0
   30.5376   50.6464    5.2879 H   0  0  0  0  0  0  0  0  0  0  0  0
   28.9443   52.4138    4.9448 H   0  0  0  0  0  0  0  0  0  0  0  0
   26.2530   50.8398    7.3764 H   0  0  0  0  0  0  0  0  0  0  0  0
   29.2433   44.2050    7.5057 H   0  0  0  0  0  0  0  0  0  0  0  0
   29.7622   42.6312    9.2290 H   0  0  0  0  0  0  0  0  0  0  0  0
   31.8657   42.7822   10.4133 H   0  0  0  0  0  0  0  0  0  0  0  0
   32.8894   46.1136    8.0985 H   0  0  0  0  0  0  0  0  0  0  0  0
   36.1778   46.6599   11.0124 H   0  0  0  0  0  0  0  0  0  0  0  0
   36.3812   44.9607   10.6594 H   0  0  0  0  0  0  0  0  0  0  0  0
   35.3996   45.4598   12.0161 H   0  0  0  0  0  0  0  0  0  0  0  0
   25.2934   53.3849    3.9376 H   0  0  0  0  0  0  0  0  0  0  0  0
   25.5815   51.9486    4.8902 H   0  0  0  0  0  0  0  0  0  0  0  0
   26.8989   52.7006    4.0228 H   0  0  0  0  0  0  0  0  0  0  0  0
   25.0116   55.2918    5.1623 H   0  0  0  0  0  0  0  0  0  0  0  0
   25.4730   56.7066    7.0887 H   0  0  0  0  0  0  0  0  0  0  0  0
   28.0860   53.7813    8.5231 H   0  0  0  0  0  0  0  0  0  0  0  0
   29.1850   55.8878    8.7976 H   0  0  0  0  0  0  0  0  0  0  0  0
   28.6981   55.9453   10.4747 H   0  0  0  0  0  0  0  0  0  0  0  0
   28.7025   57.4059    9.5156 H   0  0  0  0  0  0  0  0  0  0  0  0
   25.1223   56.3342    9.4589 H   0  0  0  0  0  0  0  0  0  0  0  0
   26.1144   57.6906    9.9375 H   0  0  0  0  0  0  0  0  0  0  0  0
   26.1100   56.2301   10.8966 H   0  0  0  0  0  0  0  0  0  0  0  0
  1  6  1  0  0  0  0
  2  3  1  0  0  0  0
  2  1  2  0  0  0  0
  2 35  1  0  0  0  0
  3  4  1  0  0  0  0
  3 36  1  0  0  0  0
  4 25  1  0  0  0  0
  4  5  2  0  0  0  0
  5 37  1  0  0  0  0
  6  5  1  0  0  0  0
  6  7  1  0  0  0  0
  8  1  1  0  0  0  0
  8  9  1  0  0  0  0
  9 11  2  0  0  0  0
 10  9  1  0  0  0  0
 10 14  1  0  0  0  0
 12 10  1  0  0  0  0
 13  8  1  0  0  0  0
 14 15  2  0  0  0  0
 14 19  1  0  0  0  0
 15 16  1  0  0  0  0
 15 38  1  0  0  0  0
 16 17  2  0  0  0  0
 16 39  1  0  0  0  0
 17 40  1  0  0  0  0
 18 17  1  0  0  0  0
 18 20  1  0  0  0  0
 19 18  2  0  0  0  0
 19 41  1  0  0  0  0
 20 21  1  0  0  0  0
 20 24  2  0  0  0  0
 21 22  1  0  0  0  0
 22 42  1  0  0  0  0
 22 43  1  0  0  0  0
 22 44  1  0  0  0  0
 23 21  1  0  0  0  0
 25 31  2  0  0  0  0
 26 28  2  0  0  0  0
 26 25  1  0  0  0  0
 27 26  1  0  0  0  0
 27 45  1  0  0  0  0
 27 46  1  0  0  0  0
 27 47  1  0  0  0  0
 28 29  1  0  0  0  0
 28 48  1  0  0  0  0
 29 30  2  0  0  0  0
 29 49  1  0  0  0  0
 30 32  1  0  0  0  0
 31 30  1  0  0  0  0
 31 50  1  0  0  0  0
 32 33  1  0  0  0  0
 32 34  1  0  0  0  0
 33 51  1  0  0  0  0
 33 52  1  0  0  0  0
 33 53  1  0  0  0  0
 34 54  1  0  0  0  0
 34 55  1  0  0  0  0
 34 56  1  0  0  0  0
M  END
>  <REMARK>
 VINA RESULT:      -7.4      4.181     10.684
  5 active torsions:
  status: ('A' for Active; 'I' for Inactive)
       I    between atoms: N_2  and  C_4 
    1  A    between atoms: C_4  and  C_6 
    2  A    between atoms: C_10  and  N_11 
       I    between atoms: N_11  and  C_13 
       I    between atoms: C_13  and  N_15 
    3  A    between atoms: N_15  and  C_17 
    4  A    between atoms: C_20  and  C_21 
    5  A    between atoms: C_26  and  N_27 

>  <TORSDO>
F 5

$$$$
resistance_project/docking/5319283d3047ac55/Q9UM73_L1196M/docked/molecule_0001_out.pdbqt
 OpenBabel09232609183D

 56 58  0  0  0  0  0  0  0  0999 V2000
   29.4650   47.7460    6.8550 C   0  0  0  0  0  0  0  0  0  0  0  0
   28.1900   48.0310    7.3440 C   0  0  0  0  0  0  0  0  0  0  0  0
   27.5990   49.2690    7.1900 C   0  0  0  0  0  0  0  0  0  0  0  0
   28.3540   50.2250    6.5130 C   0  0  0  0  0  0  0  0  0  0  0  0
   29.6300   49.9110    6.0330 C   0  0  0  0  0  0  0  0  0  0  0  0
   30.1830   48.6850    6.2010 N   0  0  0  0  0  0  0  0  0  0  0  0
   31.1150   48.4770    5.8420 H   0  0  0  0  0  0  0  0  0  0  0  0
   29.9510   46.4290    7.0840 N   0  0  0  0  0  0  0  0  0  0  0  0
   31.2150   46.1990    7.6460 C   0  0  0  0  0  0  0  0  0  0  0  0
   31.6330   44.8360    7.8000 N   0  0  0  0  0  0  0  0  0  0  0  0
   31.9340   47.1710    7.9910 O   0  0  0  0  0  0  0  0  0  0  0  0
   31.0270   44.0720    7.5000 H   0  0  0  0  0  0  0  0  0  0  0  0
   29.3660   45.6330    6.8330 H   0  0  0  0  0  0  0  0  0  0  0  0
   32.9050   44.5630    8.3780 C   0  0  0  0  0  0  0  0  0  0  0  0
   33.0960   44.3780    9.7320 C   0  0  0  0  0  0  0  0  0  0  0  0
   34.3310   44.1140   10.2920 C   0  0  0  0  0  0  0  0  0  0  0  0
   35.4400   44.0240    9.4900 C   0  0  0  0  0  0  0  0  0  0  0  0
   35.2760   44.2060    8.1320 C   0  0  0  0  0  0  0  0  0  0  0  0
   34.0440   44.4690    7.5790 C   0  0  0  0  0  0  0  0  0  0  0  0
   36.4670   44.1080    7.2950 C   0  0  0  0  0  0  0  0  0  0  0  0
   37.7850   44.1620    7.8350 N   0  0  0  0  0  0  0  0  0  0  0  0
   38.8840   43.9200    6.9020 C   0  0  0  0  0  0  0  0  0  0  0  0
   37.9530   44.3580    8.8220 H   0  0  0  0  0  0  0  0  0  0  0  0
   36.3320   43.9680    6.0510 O   0  0  0  0  0  0  0  0  0  0  0  0
   27.7570   51.5280    6.3400 C   0  0  0  0  0  0  0  0  0  0  0  0
   26.8910   51.7110    5.2760 C   0  0  0  0  0  0  0  0  0  0  0  0
   26.6020   50.5800    4.3540 C   0  0  0  0  0  0  0  0  0  0  0  0
   26.2840   52.9500    5.0590 C   0  0  0  0  0  0  0  0  0  0  0  0
   26.5370   54.0300    5.9090 C   0  0  0  0  0  0  0  0  0  0  0  0
   27.4020   53.8440    6.9690 C   0  0  0  0  0  0  0  0  0  0  0  0
   27.9930   52.6080    7.1660 C   0  0  0  0  0  0  0  0  0  0  0  0
   27.7230   54.8860    7.8910 N   0  0  0  0  0  0  0  0  0  0  0  0
   29.0510   55.0370    8.4500 C   0  0  0  0  0  0  0  0  0  0  0  0
   26.6610   55.8070    8.2580 C   0  0  0  0  0  0  0  0  0  0  0  0
   27.6698   47.2896    7.8387 H   0  0  0  0  0  0  0  0  0  0  0  0
   26.6853   49.1310    6.6506 H   0  0  0  0  0  0  0  0  0  0  0  0
   30.1681   50.6369    5.5345 H   0  0  0  0  0  0  0  0  0  0  0  0
   32.2767   44.4398   10.3565 H   0  0  0  0  0  0  0  0  0  0  0  0
   34.4190   43.9847   11.3121 H   0  0  0  0  0  0  0  0  0  0  0  0
   36.3702   43.8259    9.8906 H   0  0  0  0  0  0  0  0  0  0  0  0
   33.9616   44.5985    6.5585 H   0  0  0  0  0  0  0  0  0  0  0  0
   38.4885   43.7363    5.9249 H   0  0  0  0  0  0  0  0  0  0  0  0
   39.4454   43.0685    7.2254 H   0  0  0  0  0  0  0  0  0  0  0  0
   39.5225   44.7781    6.8728 H   0  0  0  0  0  0  0  0  0  0  0  0
   25.9174   50.9025    3.5975 H   0  0  0  0  0  0  0  0  0  0  0  0
   26.1691   49.7718    4.9057 H   0  0  0  0  0  0  0  0  0  0  0  0
   27.5116   50.2521    3.8956 H   0  0  0  0  0  0  0  0  0  0  0  0
   25.6406   53.0694    4.2610 H   0  0  0  0  0  0  0  0  0  0  0  0
   26.0878   54.9451    5.7482 H   0  0  0  0  0  0  0  0  0  0  0  0
   28.6369   52.4892    7.9637 H   0  0  0  0  0  0  0  0  0  0  0  0
   29.6900   54.2707    8.0634 H   0  0  0  0  0  0  0  0  0  0  0  0
   29.0008   54.9555    9.5157 H   0  0  0  0  0  0  0  0  0  0  0  0
   29.4431   55.9963    8.1837 H   0  0  0  0  0  0  0  0  0  0  0  0
   25.7610   55.5355    7.7470 H   0  0  0  0  0  0  0  0  0  0  0  0
   26.9411   56.8023    7.9827 H   0  0  0  0  0  0  0  0  0  0  0  0
   26.4988   55.7615    9.3147 H   0  0  0  0  0  0  0  0  0  0  0  0
  1  8  1  0  0  0  0
  1  2  2  0  0  0  0
  2 35  1  0  0  0  0
  3  2  1  0  0  0  0
  3 36  1  0  0  0  0
  4  3  1  0  0  0  0
  5  6  1  0  0  0  0
  5  4  2  0  0  0  0
  5 37  1  0  0  0  0
  6  1  1  0  0  0  0
  7  6  1  0  0  0  0
  8  9  1  0  0  0  0
  9 10  1  0  0  0  0
  9 11  2  0  0  0  0
 10 14  1  0  0  0  0
 12 10  1  0  0  0  0
 13  8  1  0  0  0  0
 14 15  2  0  0  0  0
 15 16  1  0  0  0  0
 15 38  1  0  0  0  0
 16 39  1  0  0  0  0
 17 16  2  0  0  0  0
 17 40  1  0  0  0  0
 18 17  1  0  0  0  0
 19 18  2  0  0  0  0
 19 14  1  0  0  0  0
 19 41  1  0  0  0  0
 20 21  1  0  0  0  0
 20 18  1  0  0  0  0
 21 23  1  0  0  0  0
 22 21  1  0  0  0  0
 22 42  1  0  0  0  0
 22 43  1  0  0  0  0
 22 44  1  0  0  0  0
 24 20  2  0  0  0  0
 25  4  1  0  0  0  0
 25 31  2  0  0  0  0
 26 25  1  0  0  0  0
 27 26  1  0  0  0  0
 27 45  1  0  0  0  0
 27 46  1  0  0  0  0
 27 47  1  0  0  0  0
 28 26  2  0  0  0  0
 28 29  1  0  0  0  0
 28 48  1  0  0  0  0
 29 30  2  0  0  0  0
 29 49  1  0  0  0  0
 30 31  1  0  0  0  0
 30 32  1  0  0  0  0
 31 50  1  0  0  0  0
 32 34  1  0  0  0  0
 32 33  1  0  0  0  0
 33 51  1  0  0  0  0
 33 52  1  0  0  0  0
 33 53  1  0  0  0  0
 34 54  1  0  0  0  0
 34 55  1  0  0  0  0
 34 56  1  0  0  0  0
M  END
>  <REMARK>
 VINA RESULT:      -7.1      4.303     11.314
  5 active torsions:
  status: ('A' for Active; 'I' for Inactive)
       I    between atoms: N_2  and  C_4 
    1  A    between atoms: C_4  and  C_6 
    2  A    between atoms: C_10  and  N_11 
       I    between atoms: N_11  and  C_13 
       I    between atoms: C_13  and  N_15 
    3  A    between atoms: N_15  and  C_17 
    4  A    between atoms: C_20  and  C_21 
    5  A    between atoms: C_26  and  N_27 

>  <TORSDO>
F 5

$$$$
