resistance_project/docking/5319283d3047ac55/Q9UM73_L1196M/docked/molecule_0005_out.pdbqt
 OpenBabel09232609193D

 50 52  0  0  1  0  0  0  0  0999 V2000
   28.8130   47.1270    7.8680 C   0  0  1  0  0  0  0  0  0  0  0  0
   28.3610   46.4160    8.9420 N   0  0  0  0  0  0  0  0  0  0  0  0
   27.5860   46.7650    9.5070 H   0  0  0  0  0  0  0  0  0  0  0  0
   28.9580   45.2480    9.2420 C   0  0  0  0  0  0  0  0  0  0  0  0
   28.5870   44.5420   10.2230 O   0  0  0  0  0  0  0  0  0  0  0  0
   30.0070   44.7510    8.4970 C   0  0  1  0  0  0  0  0  0  0  0  0
   30.4400   45.4650    7.4400 N   0  0  0  0  0  0  0  0  0  0  0  0
   31.2160   45.1090    6.8810 H   0  0  0  0  0  0  0  0  0  0  0  0
   29.8710   46.6400    7.1060 C   0  0  0  0  0  0  0  0  0  0  0  0
   30.2630   47.3180    6.1240 O   0  0  0  0  0  0  0  0  0  0  0  0
   28.2010   48.2550    7.6190 C   0  0  0  0  0  0  0  0  0  0  0  0
   26.8020   48.4690    7.3870 C   0  0  0  0  0  0  0  0  0  0  0  0
   26.3000   49.5160    6.6200 C   0  0  0  0  0  0  0  0  0  0  0  0
   24.9710   49.4030    6.6230 N   0  0  0  0  0  0  0  0  0  0  0  0
   24.6430   48.3280    7.3620 C   0  0  0  0  0  0  0  0  0  0  0  0
   24.3160   50.0250    6.1470 H   0  0  0  0  0  0  0  0  0  0  0  0
   25.7720   47.7570    7.8290 N   0  0  0  0  0  0  0  0  0  0  0  0
   25.8260   46.9260    8.4170 H   0  0  0  0  0  0  0  0  0  0  0  0
   27.1060   50.5570    5.9330 C   0  0  0  0  0  0  0  0  0  0  0  0
   27.7070   51.5480    6.9140 C   0  0  0  0  0  0  0  0  0  0  0  0
   26.2160   51.3610    4.9930 C   0  0  0  0  0  0  0  0  0  0  0  0
   28.1640   49.8890    5.0910 C   0  0  0  0  0  0  0  0  0  0  0  0
   30.6130   43.6030    8.7710 C   0  0  0  0  0  0  0  0  0  0  0  0
   32.0200   43.4870    9.0500 C   0  0  0  0  0  0  0  0  0  0  0  0
   32.5640   44.1430   10.1350 C   0  0  0  0  0  0  0  0  0  0  0  0
   33.9190   44.0000   10.3600 C   0  0  0  0  0  0  0  0  0  0  0  0
   34.4960   44.6330   11.4210 F   0  0  0  0  0  0  0  0  0  0  0  0
   34.7320   43.2260    9.5360 C   0  0  0  0  0  0  0  0  0  0  0  0
   34.1590   42.5750    8.4510 C   0  0  0  0  0  0  0  0  0  0  0  0
   32.8100   42.7080    8.2130 C   0  0  0  0  0  0  0  0  0  0  0  0
   32.2650   42.0790    7.1660 F   0  0  0  0  0  0  0  0  0  0  0  0
   29.4768   47.2609    7.0395 H   0  0  0  0  0  0  0  0  0  0  0  0
   29.6201   44.2015    9.3296 H   0  0  0  0  0  0  0  0  0  0  0  0
   28.4354   48.8803    8.4550 H   0  0  0  0  0  0  0  0  0  0  0  0
   28.5557   48.4140    6.6221 H   0  0  0  0  0  0  0  0  0  0  0  0
   24.1092   47.6255    6.7566 H   0  0  0  0  0  0  0  0  0  0  0  0
   28.2777   52.2781    6.3790 H   0  0  0  0  0  0  0  0  0  0  0  0
   28.3443   51.0295    7.5995 H   0  0  0  0  0  0  0  0  0  0  0  0
   26.9225   52.0348    7.4549 H   0  0  0  0  0  0  0  0  0  0  0  0
   25.7665   50.7038    4.2782 H   0  0  0  0  0  0  0  0  0  0  0  0
   26.8060   52.0933    4.4825 H   0  0  0  0  0  0  0  0  0  0  0  0
   25.4506   51.8505    5.5582 H   0  0  0  0  0  0  0  0  0  0  0  0
   27.7003   49.2008    4.4155 H   0  0  0  0  0  0  0  0  0  0  0  0
   28.8448   49.3615    5.7260 H   0  0  0  0  0  0  0  0  0  0  0  0
   28.6975   50.6307    4.5341 H   0  0  0  0  0  0  0  0  0  0  0  0
   30.4302   42.9692    7.9285 H   0  0  0  0  0  0  0  0  0  0  0  0
   30.1940   43.3729    9.7283 H   0  0  0  0  0  0  0  0  0  0  0  0
   31.9780   44.7211   10.7575 H   0  0  0  0  0  0  0  0  0  0  0  0
   35.7421   43.1376    9.7280 H   0  0  0  0  0  0  0  0  0  0  0  0
   34.7414   41.9950    7.8270 H   0  0  0  0  0  0  0  0  0  0  0  0
  1  2  1  0  0  0  0
  1 32  1  1  0  0  0
  2  4  1  0  0  0  0
  2  3  1  0  0  0  0
  4  5  2  0  0  0  0
  6 23  1  0  0  0  0
  6  4  1  0  0  0  0
  6 33  1  6  0  0  0
  7  6  1  0  0  0  0
  8  7  1  0  0  0  0
  9  7  1  0  0  0  0
  9  1  1  0  0  0  0
 10  9  2  0  0  0  0
 11  1  1  0  0  0  0
 11 34  1  0  0  0  0
 11 35  1  0  0  0  0
 12 11  1  0  0  0  0
 12 17  1  0  0  0  0
 13 14  1  0  0  0  0
 13 12  2  0  0  0  0
 14 15  1  0  0  0  0
 15 17  1  0  0  0  0
 15 36  1  0  0  0  0
 16 14  1  0  0  0  0
 17 18  1  0  0  0  0
 19 13  1  0  0  0  0
 19 20  1  0  0  0  0
 20 37  1  0  0  0  0
 20 38  1  0  0  0  0
 20 39  1  0  0  0  0
 21 19  1  0  0  0  0
 21 40  1  0  0  0  0
 21 41  1  0  0  0  0
 21 42  1  0  0  0  0
 22 19  1  0  0  0  0
 22 43  1  0  0  0  0
 22 44  1  0  0  0  0
 22 45  1  0  0  0  0
 23 24  1  0  0  0  0
 23 46  1  0  0  0  0
 23 47  1  0  0  0  0
 24 25  2  0  0  0  0
 25 26  1  0  0  0  0
 25 48  1  0  0  0  0
 26 27  1  0  0  0  0
 28 26  2  0  0  0  0
 28 49  1  0  0  0  0
 29 28  1  0  0  0  0
 29 50  1  0  0  0  0
 30 29  2  0  0  0  0
 30 24  1  0  0  0  0
 31 30  1  0  0  0  0
M  END
>  <MODEL>
1

>  <REMARK>
 VINA RESULT:      -7.8      0.000      0.000
  5 active torsions:
  status: ('A' for Active; 'I' for Inactive)
    1  A    between atoms: C_2  and  C_5 
    2  A    between atoms: C_6  and  C_7 
    3  A    between atoms: C_7  and  CA_8 
    4  A    between atoms: CA_13  and  C_14 
    5  A    between atoms: C_14  and  C_15 

>  <TORSDO>
F 5

$$$$
resistance_project/docking/5319283d3047ac55/Q9UM73_L1196M/docked/molecule_0005_out.pdbqt
 OpenBabel09232609193D

 50 52  0  0  1  0  0  0  0  0999 V2000
   29.6670   46.7490    7.5830 C   0  0  1  0  0  0  0  0  0  0  0  0
   29.7020   47.6340    6.5440 N   0  0  0  0  0  0  0  0  0  0  0  0
   30.4340   47.5750    5.8360 H   0  0  0  0  0  0  0  0  0  0  0  0
   28.7530   48.5860    6.4730 C   0  0  0  0  0  0  0  0  0  0  0  0
   28.7300   49.4350    5.5370 O   0  0  0  0  0  0  0  0  0  0  0  0
   27.7510   48.6900    7.4160 C   0  0  1  0  0  0  0  0  0  0  0  0
   27.7310   47.8090    8.4330 N   0  0  0  0  0  0  0  0  0  0  0  0
   26.9960   47.8750    9.1380 H   0  0  0  0  0  0  0  0  0  0  0  0
   28.6630   46.8410    8.5420 C   0  0  0  0  0  0  0  0  0  0  0  0
   28.6590   46.0100    9.4850 O   0  0  0  0  0  0  0  0  0  0  0  0
   30.6100   45.8450    7.6060 C   0  0  0  0  0  0  0  0  0  0  0  0
   31.9510   45.9770    8.0980 C   0  0  0  0  0  0  0  0  0  0  0  0
   32.6540   44.9440    8.7070 C   0  0  0  0  0  0  0  0  0  0  0  0
   33.8560   45.4230    9.0330 N   0  0  0  0  0  0  0  0  0  0  0  0
   33.9120   46.7100    8.6450 C   0  0  0  0  0  0  0  0  0  0  0  0
   34.6020   44.9040    9.4950 H   0  0  0  0  0  0  0  0  0  0  0  0
   32.7390   47.0460    8.0710 N   0  0  0  0  0  0  0  0  0  0  0  0
   32.4990   47.9580    7.6840 H   0  0  0  0  0  0  0  0  0  0  0  0
   32.1480   43.5670    8.9450 C   0  0  0  0  0  0  0  0  0  0  0  0
   30.6750   43.5610    9.3160 C   0  0  0  0  0  0  0  0  0  0  0  0
   32.8940   42.9380   10.1150 C   0  0  0  0  0  0  0  0  0  0  0  0
   32.4230   42.7210    7.7270 C   0  0  0  0  0  0  0  0  0  0  0  0
   26.8040   49.6190    7.3700 C   0  0  0  0  0  0  0  0  0  0  0  0
   25.5350   49.4360    6.7170 C   0  0  0  0  0  0  0  0  0  0  0  0
   24.6680   48.4570    7.1570 C   0  0  0  0  0  0  0  0  0  0  0  0
   23.4630   48.3210    6.4960 C   0  0  0  0  0  0  0  0  0  0  0  0
   22.5780   47.3640    6.9000 F   0  0  0  0  0  0  0  0  0  0  0  0
   23.1090   49.1310    5.4200 C   0  0  0  0  0  0  0  0  0  0  0  0
   23.9990   50.1100    4.9980 C   0  0  0  0  0  0  0  0  0  0  0  0
   25.2050   50.2570    5.6460 C   0  0  0  0  0  0  0  0  0  0  0  0
   26.0580   51.2010    5.2340 F   0  0  0  0  0  0  0  0  0  0  0  0
   29.2355   46.3747    8.4878 H   0  0  0  0  0  0  0  0  0  0  0  0
   27.7984   49.3581    6.5815 H   0  0  0  0  0  0  0  0  0  0  0  0
   30.7249   45.5482    6.5844 H   0  0  0  0  0  0  0  0  0  0  0  0
   30.2155   45.2214    8.3808 H   0  0  0  0  0  0  0  0  0  0  0  0
   34.0868   47.3342    9.4963 H   0  0  0  0  0  0  0  0  0  0  0  0
   30.1053   43.9954    8.5213 H   0  0  0  0  0  0  0  0  0  0  0  0
   30.5302   44.1296   10.2108 H   0  0  0  0  0  0  0  0  0  0  0  0
   30.3519   42.5538    9.4773 H   0  0  0  0  0  0  0  0  0  0  0  0
   33.9422   42.9190    9.9009 H   0  0  0  0  0  0  0  0  0  0  0  0
   32.5427   41.9387   10.2662 H   0  0  0  0  0  0  0  0  0  0  0  0
   32.7210   43.5145   10.9997 H   0  0  0  0  0  0  0  0  0  0  0  0
   31.9126   43.1350    6.8826 H   0  0  0  0  0  0  0  0  0  0  0  0
   32.0760   41.7237    7.8997 H   0  0  0  0  0  0  0  0  0  0  0  0
   33.4754   42.7042    7.5346 H   0  0  0  0  0  0  0  0  0  0  0  0
   26.5760   49.8530    8.3889 H   0  0  0  0  0  0  0  0  0  0  0  0
   27.2605   50.3469    6.7323 H   0  0  0  0  0  0  0  0  0  0  0  0
   24.9117   47.8471    7.9530 H   0  0  0  0  0  0  0  0  0  0  0  0
   22.2015   49.0060    4.9447 H   0  0  0  0  0  0  0  0  0  0  0  0
   23.7580   50.7234    4.2038 H   0  0  0  0  0  0  0  0  0  0  0  0
  1 11  1  0  0  0  0
  1  9  1  0  0  0  0
  1 32  1  1  0  0  0
  2  1  1  0  0  0  0
  3  2  1  0  0  0  0
  4  2  1  0  0  0  0
  4  6  1  0  0  0  0
  5  4  2  0  0  0  0
  6  7  1  0  0  0  0
  6 33  1  6  0  0  0
  7  9  1  0  0  0  0
  7  8  1  0  0  0  0
  9 10  2  0  0  0  0
 11 12  1  0  0  0  0
 11 34  1  0  0  0  0
 11 35  1  0  0  0  0
 12 13  2  0  0  0  0
 13 19  1  0  0  0  0
 13 14  1  0  0  0  0
 14 16  1  0  0  0  0
 15 14  1  0  0  0  0
 15 36  1  0  0  0  0
 17 12  1  0  0  0  0
 17 15  1  0  0  0  0
 18 17  1  0  0  0  0
 19 20  1  0  0  0  0
 19 21  1  0  0  0  0
 20 37  1  0  0  0  0
 20 38  1  0  0  0  0
 20 39  1  0  0  0  0
 21 40  1  0  0  0  0
 21 41  1  0  0  0  0
 21 42  1  0  0  0  0
 22 19  1  0  0  0  0
 22 43  1  0  0  0  0
 22 44  1  0  0  0  0
 22 45  1  0  0  0  0
 23  6  1  0  0  0  0
 23 46  1  0  0  0  0
 23 47  1  0  0  0  0
 24 25  1  0  0  0  0
 24 23  1  0  0  0  0
 25 48  1  0  0  0  0
 26 27  1  0  0  0  0
 26 25  2  0  0  0  0
 28 26  1  0  0  0  0
 28 49  1  0  0  0  0
 29 28  2  0  0  0  0
 29 30  1  0  0  0  0
 29 50  1  0  0  0  0
 30 24  2  0  0  0  0
 31 30  1  0  0  0  0
M  END
>  <REMARK>
 VINA RESULT:      -7.6      3.576      8.615
  5 active torsions:
  status: ('A' for Active; 'I' for Inactive)
    1  A    between atoms: C_2  and  C_5 
    2  A    between atoms: C_6  and  C_7 
    3  A    between atoms: C_7  and  CA_8 
    4  A    between atoms: CA_13  and  C_14 
    5  A    between atoms: C_14  and  C_15 

>  <TORSDO>
F 5

$$$$
resistance_project/docking/5319283d3047ac55/Q9UM73_L1196M/docked/molecule_0005_out.pdbqt
 OpenBabel09232609193D

 50 52  0  0  1  0  0  0  0  0999 V2000
   29.6180   46.3040    7.3760 C   0  0  1  0  0  0  0  0  0  0  0  0
   29.7270   47.3970    6.5660 N   0  0  0  0  0  0  0  0  0  0  0  0
   30.4980   47.4760    5.9020 H   0  0  0  0  0  0  0  0  0  0  0  0
   28.8000   48.3680    6.6600 C   0  0  0  0  0  0  0  0  0  0  0  0
   28.8450   49.4040    5.9380 O   0  0  0  0  0  0  0  0  0  0  0  0
   27.7470   48.2880    7.5470 C   0  0  2  0  0  0  0  0  0  0  0  0
   27.6530   47.2020    8.3380 N   0  0  0  0  0  0  0  0  0  0  0  0
   26.8790   47.1310    8.9990 H   0  0  0  0  0  0  0  0  0  0  0  0
   28.5620   46.2080    8.2760 C   0  0  0  0  0  0  0  0  0  0  0  0
   28.4890   45.1890    9.0080 O   0  0  0  0  0  0  0  0  0  0  0  0
   30.5430   45.3900    7.2460 C   0  0  0  0  0  0  0  0  0  0  0  0
   31.4690   44.9220    8.2360 C   0  0  0  0  0  0  0  0  0  0  0  0
   32.7660   45.4080    8.3690 C   0  0  0  0  0  0  0  0  0  0  0  0
   33.3310   44.7500    9.3820 N   0  0  0  0  0  0  0  0  0  0  0  0
   32.4290   43.8810    9.8720 C   0  0  0  0  0  0  0  0  0  0  0  0
   34.2830   44.8830    9.7260 H   0  0  0  0  0  0  0  0  0  0  0  0
   31.2870   43.9900    9.1640 N   0  0  0  0  0  0  0  0  0  0  0  0
   30.4330   43.4530    9.3150 H   0  0  0  0  0  0  0  0  0  0  0  0
   33.3900   46.4650    7.5310 C   0  0  0  0  0  0  0  0  0  0  0  0
   33.1270   46.2450    6.0520 C   0  0  0  0  0  0  0  0  0  0  0  0
   34.9030   46.4390    7.7120 C   0  0  0  0  0  0  0  0  0  0  0  0
   32.9030   47.8150    7.9930 C   0  0  0  0  0  0  0  0  0  0  0  0
   26.8190   49.2300    7.6600 C   0  0  0  0  0  0  0  0  0  0  0  0
   25.5610   49.2030    6.9610 C   0  0  0  0  0  0  0  0  0  0  0  0
   24.6080   48.2620    7.2940 C   0  0  0  0  0  0  0  0  0  0  0  0
   23.4180   48.2780    6.5940 C   0  0  0  0  0  0  0  0  0  0  0  0
   22.4500   47.3640    6.8920 F   0  0  0  0  0  0  0  0  0  0  0  0
   23.1620   49.2000    5.5820 C   0  0  0  0  0  0  0  0  0  0  0  0
   24.1380   50.1370    5.2680 C   0  0  0  0  0  0  0  0  0  0  0  0
   25.3300   50.1340    5.9570 C   0  0  0  0  0  0  0  0  0  0  0  0
   26.2650   51.0390    5.6480 F   0  0  0  0  0  0  0  0  0  0  0  0
   29.1355   45.7524    8.1556 H   0  0  0  0  0  0  0  0  0  0  0  0
   27.8680   49.1344    6.9037 H   0  0  0  0  0  0  0  0  0  0  0  0
   31.1586   45.7403    6.4440 H   0  0  0  0  0  0  0  0  0  0  0  0
   29.9113   44.5278    7.1964 H   0  0  0  0  0  0  0  0  0  0  0  0
   32.8090   42.8842    9.7891 H   0  0  0  0  0  0  0  0  0  0  0  0
   33.5922   47.0256    5.4870 H   0  0  0  0  0  0  0  0  0  0  0  0
   32.0723   46.2544    5.8720 H   0  0  0  0  0  0  0  0  0  0  0  0
   33.5312   45.3000    5.7546 H   0  0  0  0  0  0  0  0  0  0  0  0
   35.3477   47.2013    7.1071 H   0  0  0  0  0  0  0  0  0  0  0  0
   35.2812   45.4829    7.4160 H   0  0  0  0  0  0  0  0  0  0  0  0
   35.1423   46.6146    8.7400 H   0  0  0  0  0  0  0  0  0  0  0  0
   33.3495   48.5799    7.3926 H   0  0  0  0  0  0  0  0  0  0  0  0
   33.1755   47.9611    9.0174 H   0  0  0  0  0  0  0  0  0  0  0  0
   31.8384   47.8622    7.8969 H   0  0  0  0  0  0  0  0  0  0  0  0
   26.5729   49.2726    8.7004 H   0  0  0  0  0  0  0  0  0  0  0  0
   27.3034   50.0542    7.1794 H   0  0  0  0  0  0  0  0  0  0  0  0
   24.7789   47.5702    8.0405 H   0  0  0  0  0  0  0  0  0  0  0  0
   22.2634   49.1872    5.0746 H   0  0  0  0  0  0  0  0  0  0  0  0
   23.9707   50.8311    4.5229 H   0  0  0  0  0  0  0  0  0  0  0  0
  1  9  1  0  0  0  0
  1 32  1  1  0  0  0
  2  4  1  0  0  0  0
  2  1  1  0  0  0  0
  3  2  1  0  0  0  0
  4  6  1  0  0  0  0
  5  4  2  0  0  0  0
  6 23  1  0  0  0  0
  6  7  1  0  0  0  0
  6 33  1  1  0  0  0
  7  8  1  0  0  0  0
  9  7  1  0  0  0  0
  9 10  2  0  0  0  0
 11  1  1  0  0  0  0
 11 12  1  0  0  0  0
 11 34  1  0  0  0  0
 11 35  1  0  0  0  0
 12 13  2  0  0  0  0
 12 17  1  0  0  0  0
 13 14  1  0  0  0  0
 14 16  1  0  0  0  0
 14 15  1  0  0  0  0
 15 36  1  0  0  0  0
 17 18  1  0  0  0  0
 17 15  1  0  0  0  0
 19 21  1  0  0  0  0
 19 22  1  0  0  0  0
 19 13  1  0  0  0  0
 20 19  1  0  0  0  0
 20 37  1  0  0  0  0
 20 38  1  0  0  0  0
 20 39  1  0  0  0  0
 21 40  1  0  0  0  0
 21 41  1  0  0  0  0
 21 42  1  0  0  0  0
 22 43  1  0  0  0  0
 22 44  1  0  0  0  0
 22 45  1  0  0  0  0
 23 46  1  0  0  0  0
 23 47  1  0  0  0  0
 24 25  1  0  0  0  0
 24 23  1  0  0  0  0
 25 48  1  0  0  0  0
 26 27  1  0  0  0  0
 26 25  2  0  0  0  0
 28 26  1  0  0  0  0
 28 49  1  0  0  0  0
 29 28  2  0  0  0  0
 29 30  1  0  0  0  0
 29 50  1  0  0  0  0
 30 24  2  0  0  0  0
 31 30  1  0  0  0  0
M  END
>  <REMARK>
 VINA RESULT:      -7.5      3.626      8.251
  5 active torsions:
  status: ('A' for Active; 'I' for Inactive)
    1  A    between atoms: C_2  and  C_5 
    2  A    between atoms: C_6  and  C_7 
    3  A    between atoms: C_7  and  CA_8 
    4  A    between atoms: CA_13  and  C_14 
    5  A    between atoms: C_14  and  C_15 

>  <TORSDO>
F 5

$$$$
resistance_project/docking/5319283d3047ac55/Q9UM73_L1196M/docked/molecule_0005_out.pdbqt
 OpenBabel09232609193D

 50 52  0  0  1  0  0  0  0  0999 V2000
   29.7450   46.8830    6.9830 C   0  0  1  0  0  0  0  0  0  0  0  0
   29.1270   46.3710    8.0870 N   0  0  0  0  0  0  0  0  0  0  0  0
   28.3100   46.8340    8.4860 H   0  0  0  0  0  0  0  0  0  0  0  0
   29.6160   45.2450    8.6390 C   0  0  0  0  0  0  0  0  0  0  0  0
   29.0900   44.7210    9.6610 O   0  0  0  0  0  0  0  0  0  0  0  0
   30.7190   44.5980    8.1210 C   0  0  1  0  0  0  0  0  0  0  0  0
   31.3170   45.1160    7.0310 N   0  0  0  0  0  0  0  0  0  0  0  0
   32.1330   44.6470    6.6390 H   0  0  0  0  0  0  0  0  0  0  0  0
   30.8590   46.2420    6.4490 C   0  0  0  0  0  0  0  0  0  0  0  0
   31.4050   46.7380    5.4320 O   0  0  0  0  0  0  0  0  0  0  0  0
   29.2320   47.9770    6.4850 C   0  0  0  0  0  0  0  0  0  0  0  0
   29.7420   49.3140    6.5760 C   0  0  0  0  0  0  0  0  0  0  0  0
   28.9390   50.4490    6.5420 C   0  0  0  0  0  0  0  0  0  0  0  0
   29.7460   51.5060    6.6500 N   0  0  0  0  0  0  0  0  0  0  0  0
   31.0100   51.0590    6.7490 C   0  0  0  0  0  0  0  0  0  0  0  0
   29.4540   52.4840    6.6570 H   0  0  0  0  0  0  0  0  0  0  0  0
   31.0030   49.7110    6.7030 N   0  0  0  0  0  0  0  0  0  0  0  0
   31.8210   49.1050    6.7570 H   0  0  0  0  0  0  0  0  0  0  0  0
   27.4590   50.4660    6.4090 C   0  0  0  0  0  0  0  0  0  0  0  0
   27.0160   50.2100    4.9790 C   0  0  0  0  0  0  0  0  0  0  0  0
   26.9220   51.8390    6.7910 C   0  0  0  0  0  0  0  0  0  0  0  0
   26.8650   49.4650    7.3680 C   0  0  0  0  0  0  0  0  0  0  0  0
   31.2220   43.4870    8.6450 C   0  0  0  0  0  0  0  0  0  0  0  0
   32.6000   43.3360    9.0320 C   0  0  0  0  0  0  0  0  0  0  0  0
   33.1120   44.0900   10.0680 C   0  0  0  0  0  0  0  0  0  0  0  0
   34.4400   43.9090   10.4000 C   0  0  0  0  0  0  0  0  0  0  0  0
   34.9840   44.6360   11.4180 F   0  0  0  0  0  0  0  0  0  0  0  0
   35.2570   43.0040    9.7290 C   0  0  0  0  0  0  0  0  0  0  0  0
   34.7170   42.2560    8.6900 C   0  0  0  0  0  0  0  0  0  0  0  0
   33.3940   42.4260    8.3470 C   0  0  0  0  0  0  0  0  0  0  0  0
   32.8810   41.7030    7.3460 F   0  0  0  0  0  0  0  0  0  0  0  0
   30.5079   46.8592    6.2332 H   0  0  0  0  0  0  0  0  0  0  0  0
   30.2009   44.2329    8.9831 H   0  0  0  0  0  0  0  0  0  0  0  0
   29.1574   47.7869    5.4347 H   0  0  0  0  0  0  0  0  0  0  0  0
   28.3968   48.0783    7.1462 H   0  0  0  0  0  0  0  0  0  0  0  0
   31.4342   51.3843    7.6759 H   0  0  0  0  0  0  0  0  0  0  0  0
   27.4579   50.9393    4.3327 H   0  0  0  0  0  0  0  0  0  0  0  0
   25.9499   50.2787    4.9181 H   0  0  0  0  0  0  0  0  0  0  0  0
   27.3280   49.2316    4.6787 H   0  0  0  0  0  0  0  0  0  0  0  0
   27.3246   52.5764    6.1284 H   0  0  0  0  0  0  0  0  0  0  0  0
   27.2095   52.0675    7.7960 H   0  0  0  0  0  0  0  0  0  0  0  0
   25.8546   51.8377    6.7170 H   0  0  0  0  0  0  0  0  0  0  0  0
   27.2224   48.4855    7.1278 H   0  0  0  0  0  0  0  0  0  0  0  0
   25.7981   49.4848    7.2888 H   0  0  0  0  0  0  0  0  0  0  0  0
   27.1531   49.7145    8.3678 H   0  0  0  0  0  0  0  0  0  0  0  0
   31.0356   42.7163    7.9266 H   0  0  0  0  0  0  0  0  0  0  0  0
   30.7382   43.4729    9.5993 H   0  0  0  0  0  0  0  0  0  0  0  0
   32.5222   44.7664   10.5775 H   0  0  0  0  0  0  0  0  0  0  0  0
   36.2467   42.8904    9.9984 H   0  0  0  0  0  0  0  0  0  0  0  0
   35.3032   41.5777    8.1788 H   0  0  0  0  0  0  0  0  0  0  0  0
  1  2  1  0  0  0  0
  1 32  1  1  0  0  0
  2  3  1  0  0  0  0
  2  4  1  0  0  0  0
  4  5  2  0  0  0  0
  6  4  1  0  0  0  0
  6 23  1  0  0  0  0
  6 33  1  6  0  0  0
  7  6  1  0  0  0  0
  8  7  1  0  0  0  0
  9  1  1  0  0  0  0
  9  7  1  0  0  0  0
 10  9  2  0  0  0  0
 11 12  1  0  0  0  0
 11  1  1  0  0  0  0
 11 34  1  0  0  0  0
 11 35  1  0  0  0  0
 12 17  1  0  0  0  0
 13 12  2  0  0  0  0
 13 14  1  0  0  0  0
 14 16  1  0  0  0  0
 14 15  1  0  0  0  0
 15 36  1  0  0  0  0
 17 15  1  0  0  0  0
 17 18  1  0  0  0  0
 19 13  1  0  0  0  0
 19 21  1  0  0  0  0
 19 22  1  0  0  0  0
 20 19  1  0  0  0  0
 20 37  1  0  0  0  0
 20 38  1  0  0  0  0
 20 39  1  0  0  0  0
 21 40  1  0  0  0  0
 21 41  1  0  0  0  0
 21 42  1  0  0  0  0
 22 43  1  0  0  0  0
 22 44  1  0  0  0  0
 22 45  1  0  0  0  0
 23 24  1  0  0  0  0
 23 46  1  0  0  0  0
 23 47  1  0  0  0  0
 24 25  2  0  0  0  0
 25 26  1  0  0  0  0
 25 48  1  0  0  0  0
 26 27  1  0  0  0  0
 28 26  2  0  0  0  0
 28 49  1  0  0  0  0
 29 28  1  0  0  0  0
 29 50  1  0  0  0  0
 30 29  2  0  0  0  0
 30 24  1  0  0  0  0
 31 30  1  0  0  0  0
M  END
>  <REMARK>
 VINA RESULT:      -7.4      1.736      2.426
  5 active torsions:
  status: ('A' for Active; 'I' for Inactive)
    1  A    between atoms: C_2  and  C_5 
    2  A    between atoms: C_6  and  C_7 
    3  A    between atoms: C_7  and  CA_8 
    4  A    between atoms: CA_13  and  C_14 
    5  A    between atoms: C_14  and  C_15 

>  <TORSDO>
F 5

$$$$
resistance_project/docking/5319283d3047ac55/Q9UM73_L1196M/docked/molecule_0005_out.pdbqt
 OpenBabel09232609193D

 50 52  0  0  1  0  0  0  0  0999 V2000
   27.9590   47.9480    7.6320 C   0  0  1  0  0  0  0  0  0  0  0  0
   27.7010   46.9680    8.5460 N   0  0  0  0  0  0  0  0  0  0  0  0
   26.9020   47.0430    9.1760 H   0  0  0  0  0  0  0  0  0  0  0  0
   28.5220   45.9030    8.6030 C   0  0  0  0  0  0  0  0  0  0  0  0
   28.3380   44.9620    9.4270 O   0  0  0  0  0  0  0  0  0  0  0  0
   29.6100   45.7750    7.7650 C   0  0  2  0  0  0  0  0  0  0  0  0
   29.8490   46.7500    6.8670 N   0  0  0  0  0  0  0  0  0  0  0  0
   30.6510   46.6670    6.2420 H   0  0  0  0  0  0  0  0  0  0  0  0
   29.0520   47.8330    6.7790 C   0  0  0  0  0  0  0  0  0  0  0  0
   29.2620   48.7520    5.9480 O   0  0  0  0  0  0  0  0  0  0  0  0
   27.1330   48.9600    7.6170 C   0  0  0  0  0  0  0  0  0  0  0  0
   25.7460   48.9660    7.2510 C   0  0  0  0  0  0  0  0  0  0  0  0
   25.1550   49.9670    6.4880 C   0  0  0  0  0  0  0  0  0  0  0  0
   23.8680   49.6460    6.3470 N   0  0  0  0  0  0  0  0  0  0  0  0
   23.6510   48.4880    6.9950 C   0  0  0  0  0  0  0  0  0  0  0  0
   23.1690   50.1860    5.8360 H   0  0  0  0  0  0  0  0  0  0  0  0
   24.8090   48.0740    7.5490 N   0  0  0  0  0  0  0  0  0  0  0  0
   24.9420   47.2260    8.0990 H   0  0  0  0  0  0  0  0  0  0  0  0
   25.8420   51.1650    5.9390 C   0  0  0  0  0  0  0  0  0  0  0  0
   26.7640   50.8100    4.7860 C   0  0  0  0  0  0  0  0  0  0  0  0
   26.7160   51.7960    7.0160 C   0  0  0  0  0  0  0  0  0  0  0  0
   24.8090   52.1880    5.5380 C   0  0  0  0  0  0  0  0  0  0  0  0
   30.4350   44.7350    7.7990 C   0  0  0  0  0  0  0  0  0  0  0  0
   31.6660   44.7150    8.5430 C   0  0  0  0  0  0  0  0  0  0  0  0
   32.6370   45.6640    8.2970 C   0  0  0  0  0  0  0  0  0  0  0  0
   33.8000   45.6010    9.0380 C   0  0  0  0  0  0  0  0  0  0  0  0
   34.7850   46.5200    8.8250 F   0  0  0  0  0  0  0  0  0  0  0  0
   34.0130   44.6240   10.0070 C   0  0  0  0  0  0  0  0  0  0  0  0
   33.0190   43.6800   10.2360 C   0  0  0  0  0  0  0  0  0  0  0  0
   31.8530   43.7300    9.5050 C   0  0  0  0  0  0  0  0  0  0  0  0
   30.9010   42.8180    9.7300 F   0  0  0  0  0  0  0  0  0  0  0  0
   28.5633   48.3903    6.8677 H   0  0  0  0  0  0  0  0  0  0  0  0
   29.3915   45.0347    8.5060 H   0  0  0  0  0  0  0  0  0  0  0  0
   27.1499   49.3373    8.6181 H   0  0  0  0  0  0  0  0  0  0  0  0
   27.5256   49.4745    6.7649 H   0  0  0  0  0  0  0  0  0  0  0  0
   23.2993   47.7503    6.3043 H   0  0  0  0  0  0  0  0  0  0  0  0
   26.1946   50.3610    3.9992 H   0  0  0  0  0  0  0  0  0  0  0  0
   27.5096   50.1212    5.1246 H   0  0  0  0  0  0  0  0  0  0  0  0
   27.2376   51.6976    4.4217 H   0  0  0  0  0  0  0  0  0  0  0  0
   27.2083   52.6578    6.6162 H   0  0  0  0  0  0  0  0  0  0  0  0
   27.4475   51.0867    7.3425 H   0  0  0  0  0  0  0  0  0  0  0  0
   26.1058   52.0866    7.8455 H   0  0  0  0  0  0  0  0  0  0  0  0
   24.1754   51.7769    4.7801 H   0  0  0  0  0  0  0  0  0  0  0  0
   25.2993   53.0601    5.1586 H   0  0  0  0  0  0  0  0  0  0  0  0
   24.2194   52.4528    6.3908 H   0  0  0  0  0  0  0  0  0  0  0  0
   30.7066   44.5455    6.7816 H   0  0  0  0  0  0  0  0  0  0  0  0
   29.8508   44.0266    8.3484 H   0  0  0  0  0  0  0  0  0  0  0  0
   32.4984   46.3962    7.5831 H   0  0  0  0  0  0  0  0  0  0  0  0
   34.8931   44.6013   10.5454 H   0  0  0  0  0  0  0  0  0  0  0  0
   33.1538   42.9464   10.9492 H   0  0  0  0  0  0  0  0  0  0  0  0
  1  2  1  0  0  0  0
  1 32  1  1  0  0  0
  2  4  1  0  0  0  0
  2  3  1  0  0  0  0
  4  5  2  0  0  0  0
  6 23  1  0  0  0  0
  6  4  1  0  0  0  0
  6 33  1  1  0  0  0
  7  6  1  0  0  0  0
  8  7  1  0  0  0  0
  9  7  1  0  0  0  0
  9  1  1  0  0  0  0
 10  9  2  0  0  0  0
 11  1  1  0  0  0  0
 11 34  1  0  0  0  0
 11 35  1  0  0  0  0
 12 17  1  0  0  0  0
 12 11  1  0  0  0  0
 13 12  2  0  0  0  0
 14 13  1  0  0  0  0
 14 15  1  0  0  0  0
 15 17  1  0  0  0  0
 15 36  1  0  0  0  0
 16 14  1  0  0  0  0
 17 18  1  0  0  0  0
 19 13  1  0  0  0  0
 19 21  1  0  0  0  0
 20 19  1  0  0  0  0
 20 37  1  0  0  0  0
 20 38  1  0  0  0  0
 20 39  1  0  0  0  0
 21 40  1  0  0  0  0
 21 41  1  0  0  0  0
 21 42  1  0  0  0  0
 22 19  1  0  0  0  0
 22 43  1  0  0  0  0
 22 44  1  0  0  0  0
 22 45  1  0  0  0  0
 23 24  1  0  0  0  0
 23 46  1  0  0  0  0
 23 47  1  0  0  0  0
 24 30  1  0  0  0  0
 25 24  2  0  0  0  0
 25 26  1  0  0  0  0
 25 48  1  0  0  0  0
 26 28  2  0  0  0  0
 27 26  1  0  0  0  0
 28 29  1  0  0  0  0
 28 49  1  0  0  0  0
 29 50  1  0  0  0  0
 30 31  1  0  0  0  0
 30 29  2  0  0  0  0
M  END
>  <REMARK>
 VINA RESULT:      -7.4      1.461      1.891
  5 active torsions:
  status: ('A' for Active; 'I' for Inactive)
    1  A    between atoms: C_2  and  C_5 
    2  A    between atoms: C_6  and  C_7 
    3  A    between atoms: C_7  and  CA_8 
    4  A    between atoms: CA_13  and  C_14 
    5  A    between atoms: C_14  and  C_15 

>  <TORSDO>
F 5

$$$$
resistance_project/docking/5319283d3047ac55/Q9UM73_L1196M/docked/molecule_0005_out.pdbqt
 OpenBabel09232609193D

 50 52  0  0  1  0  0  0  0  0999 V2000
   35.2160   45.7030    8.7640 C   0  0  2  0  0  0  0  0  0  0  0  0
   34.6940   45.7960    7.5060 N   0  0  0  0  0  0  0  0  0  0  0  0
   35.2020   46.2870    6.7690 H   0  0  0  0  0  0  0  0  0  0  0  0
   33.4990   45.2310    7.2570 C   0  0  0  0  0  0  0  0  0  0  0  0
   32.9630   45.2820    6.1140 O   0  0  0  0  0  0  0  0  0  0  0  0
   32.7900   44.5620    8.2330 C   0  0  1  0  0  0  0  0  0  0  0  0
   33.3190   44.4790    9.4690 N   0  0  0  0  0  0  0  0  0  0  0  0
   32.8050   43.9870   10.2000 H   0  0  0  0  0  0  0  0  0  0  0  0
   34.5130   45.0320    9.7600 C   0  0  0  0  0  0  0  0  0  0  0  0
   35.0210   44.9630   10.9070 O   0  0  0  0  0  0  0  0  0  0  0  0
   36.3780   46.2690    8.9540 C   0  0  0  0  0  0  0  0  0  0  0  0
   36.9090   47.4370    8.3130 C   0  0  0  0  0  0  0  0  0  0  0  0
   38.0250   47.4210    7.4830 C   0  0  0  0  0  0  0  0  0  0  0  0
   38.2270   48.6730    7.0710 N   0  0  0  0  0  0  0  0  0  0  0  0
   37.2780   49.4530    7.6180 C   0  0  0  0  0  0  0  0  0  0  0  0
   38.9730   48.9860    6.4480 H   0  0  0  0  0  0  0  0  0  0  0  0
   36.4700   48.6890    8.3810 N   0  0  0  0  0  0  0  0  0  0  0  0
   35.6650   49.0140    8.9160 H   0  0  0  0  0  0  0  0  0  0  0  0
   38.8300   46.2230    7.1300 C   0  0  0  0  0  0  0  0  0  0  0  0
   39.3230   45.4880    8.3630 C   0  0  0  0  0  0  0  0  0  0  0  0
   40.0700   46.6470    6.3520 C   0  0  0  0  0  0  0  0  0  0  0  0
   38.0170   45.3270    6.2300 C   0  0  0  0  0  0  0  0  0  0  0  0
   31.6100   43.9950    8.0150 C   0  0  0  0  0  0  0  0  0  0  0  0
   30.3550   44.5930    8.3860 C   0  0  0  0  0  0  0  0  0  0  0  0
   29.8460   45.6430    7.6490 C   0  0  0  0  0  0  0  0  0  0  0  0
   28.6380   46.1810    8.0460 C   0  0  0  0  0  0  0  0  0  0  0  0
   28.1020   47.2210    7.3450 F   0  0  0  0  0  0  0  0  0  0  0  0
   27.9360   45.7010    9.1480 C   0  0  0  0  0  0  0  0  0  0  0  0
   28.4690   44.6420    9.8720 C   0  0  0  0  0  0  0  0  0  0  0  0
   29.6730   44.0940    9.4890 C   0  0  0  0  0  0  0  0  0  0  0  0
   30.1810   43.0760   10.1910 F   0  0  0  0  0  0  0  0  0  0  0  0
   35.1838   45.3789    9.7832 H   0  0  0  0  0  0  0  0  0  0  0  0
   32.4073   44.6458    7.2373 H   0  0  0  0  0  0  0  0  0  0  0  0
   36.3981   46.5011    9.9983 H   0  0  0  0  0  0  0  0  0  0  0  0
   36.9942   45.5327    8.4817 H   0  0  0  0  0  0  0  0  0  0  0  0
   36.7054   49.9187    6.8433 H   0  0  0  0  0  0  0  0  0  0  0  0
   39.8961   44.6352    8.0645 H   0  0  0  0  0  0  0  0  0  0  0  0
   38.4850   45.1682    8.9464 H   0  0  0  0  0  0  0  0  0  0  0  0
   39.9354   46.1425    8.9473 H   0  0  0  0  0  0  0  0  0  0  0  0
   39.7741   47.1724    5.4681 H   0  0  0  0  0  0  0  0  0  0  0  0
   40.6339   45.7795    6.0793 H   0  0  0  0  0  0  0  0  0  0  0  0
   40.6726   47.2868    6.9624 H   0  0  0  0  0  0  0  0  0  0  0  0
   37.6898   45.8819    5.3756 H   0  0  0  0  0  0  0  0  0  0  0  0
   37.1657   44.9615    6.7653 H   0  0  0  0  0  0  0  0  0  0  0  0
   38.6186   44.5019    5.9104 H   0  0  0  0  0  0  0  0  0  0  0  0
   31.6430   43.0513    8.5182 H   0  0  0  0  0  0  0  0  0  0  0  0
   31.5530   44.0418    6.9475 H   0  0  0  0  0  0  0  0  0  0  0  0
   30.3512   46.0135    6.8289 H   0  0  0  0  0  0  0  0  0  0  0  0
   27.0357   46.1243    9.4223 H   0  0  0  0  0  0  0  0  0  0  0  0
   27.9658   44.2682   10.6918 H   0  0  0  0  0  0  0  0  0  0  0  0
  1 11  1  0  0  0  0
  1  9  1  0  0  0  0
  1 32  1  6  0  0  0
  2  1  1  0  0  0  0
  3  2  1  0  0  0  0
  4  2  1  0  0  0  0
  4  6  1  0  0  0  0
  5  4  2  0  0  0  0
  6  7  1  0  0  0  0
  6 33  1  6  0  0  0
  7  9  1  0  0  0  0
  7  8  1  0  0  0  0
  9 10  2  0  0  0  0
 11 34  1  0  0  0  0
 11 35  1  0  0  0  0
 12 17  1  0  0  0  0
 12 11  1  0  0  0  0
 13 12  2  0  0  0  0
 14 13  1  0  0  0  0
 14 15  1  0  0  0  0
 15 17  1  0  0  0  0
 15 36  1  0  0  0  0
 16 14  1  0  0  0  0
 17 18  1  0  0  0  0
 19 13  1  0  0  0  0
 19 20  1  0  0  0  0
 20 37  1  0  0  0  0
 20 38  1  0  0  0  0
 20 39  1  0  0  0  0
 21 19  1  0  0  0  0
 21 40  1  0  0  0  0
 21 41  1  0  0  0  0
 21 42  1  0  0  0  0
 22 19  1  0  0  0  0
 22 43  1  0  0  0  0
 22 44  1  0  0  0  0
 22 45  1  0  0  0  0
 23  6  1  0  0  0  0
 23 24  1  0  0  0  0
 23 46  1  0  0  0  0
 23 47  1  0  0  0  0
 24 30  2  0  0  0  0
 25 26  2  0  0  0  0
 25 24  1  0  0  0  0
 25 48  1  0  0  0  0
 26 28  1  0  0  0  0
 27 26  1  0  0  0  0
 28 29  2  0  0  0  0
 28 49  1  0  0  0  0
 29 50  1  0  0  0  0
 30 29  1  0  0  0  0
 30 31  1  0  0  0  0
M  END
>  <REMARK>
 VINA RESULT:      -7.3      4.479      8.461
  5 active torsions:
  status: ('A' for Active; 'I' for Inactive)
    1  A    between atoms: C_2  and  C_5 
    2  A    between atoms: C_6  and  C_7 
    3  A    between atoms: C_7  and  CA_8 
    4  A    between atoms: CA_13  and  C_14 
    5  A    between atoms: C_14  and  C_15 

>  <TORSDO>
F 5

$$$$
resistance_project/docking/5319283d3047ac55/Q9UM73_L1196M/docked/molecule_0005_out.pdbqt
 OpenBabel09232609193D

 50 52  0  0  1  0  0  0  0  0999 V2000
   35.2650   44.0600    8.8140 C   0  0  1  0  0  0  0  0  0  0  0  0
   34.6220   43.1230    8.0580 N   0  0  0  0  0  0  0  0  0  0  0  0
   35.1350   42.5650    7.3750 H   0  0  0  0  0  0  0  0  0  0  0  0
   33.2980   42.9500    8.2290 C   0  0  0  0  0  0  0  0  0  0  0  0
   32.6450   42.0990    7.5610 O   0  0  0  0  0  0  0  0  0  0  0  0
   32.5780   43.6890    9.1440 C   0  0  2  0  0  0  0  0  0  0  0  0
   33.2280   44.6090    9.8830 N   0  0  0  0  0  0  0  0  0  0  0  0
   32.7060   45.1620   10.5630 H   0  0  0  0  0  0  0  0  0  0  0  0
   34.5520   44.8130    9.7410 C   0  0  0  0  0  0  0  0  0  0  0  0
   35.1740   45.6680   10.4220 O   0  0  0  0  0  0  0  0  0  0  0  0
   36.5490   44.1890    8.6090 C   0  0  0  0  0  0  0  0  0  0  0  0
   37.3010   45.3990    8.4430 C   0  0  0  0  0  0  0  0  0  0  0  0
   37.4440   46.0570    7.2260 C   0  0  0  0  0  0  0  0  0  0  0  0
   38.2000   47.1330    7.4460 N   0  0  0  0  0  0  0  0  0  0  0  0
   38.5230   47.1580    8.7510 C   0  0  0  0  0  0  0  0  0  0  0  0
   38.4830   47.8190    6.7450 H   0  0  0  0  0  0  0  0  0  0  0  0
   37.9690   46.0900    9.3600 N   0  0  0  0  0  0  0  0  0  0  0  0
   38.0470   45.8550   10.3480 H   0  0  0  0  0  0  0  0  0  0  0  0
   36.8570   45.6270    5.9300 C   0  0  0  0  0  0  0  0  0  0  0  0
   37.1190   44.1580    5.6490 C   0  0  0  0  0  0  0  0  0  0  0  0
   37.4980   46.4080    4.7890 C   0  0  0  0  0  0  0  0  0  0  0  0
   35.3830   45.9450    5.9230 C   0  0  0  0  0  0  0  0  0  0  0  0
   31.2730   43.5390    9.3340 C   0  0  0  0  0  0  0  0  0  0  0  0
   30.2870   44.5010    8.9170 C   0  0  0  0  0  0  0  0  0  0  0  0
   30.5450   45.3310    7.8450 C   0  0  0  0  0  0  0  0  0  0  0  0
   29.5670   46.2370    7.4850 C   0  0  0  0  0  0  0  0  0  0  0  0
   29.7830   47.0770    6.4310 F   0  0  0  0  0  0  0  0  0  0  0  0
   28.3540   46.3320    8.1620 C   0  0  0  0  0  0  0  0  0  0  0  0
   28.1200   45.4840    9.2370 C   0  0  0  0  0  0  0  0  0  0  0  0
   29.0850   44.5750    9.6080 C   0  0  0  0  0  0  0  0  0  0  0  0
   28.8530   43.7620   10.6450 F   0  0  0  0  0  0  0  0  0  0  0  0
   35.2822   44.8337    9.5529 H   0  0  0  0  0  0  0  0  0  0  0  0
   32.1122   42.9474    8.5292 H   0  0  0  0  0  0  0  0  0  0  0  0
   37.0066   43.6984    9.4425 H   0  0  0  0  0  0  0  0  0  0  0  0
   36.5868   43.8365    7.5994 H   0  0  0  0  0  0  0  0  0  0  0  0
   38.1513   48.0575    9.1956 H   0  0  0  0  0  0  0  0  0  0  0  0
   36.6811   43.8909    4.7100 H   0  0  0  0  0  0  0  0  0  0  0  0
   36.6863   43.5635    6.4263 H   0  0  0  0  0  0  0  0  0  0  0  0
   38.1742   43.9845    5.6127 H   0  0  0  0  0  0  0  0  0  0  0  0
   37.0720   46.0947    3.8588 H   0  0  0  0  0  0  0  0  0  0  0  0
   38.5520   46.2238    4.7786 H   0  0  0  0  0  0  0  0  0  0  0  0
   37.3201   47.4538    4.9285 H   0  0  0  0  0  0  0  0  0  0  0  0
   34.9561   45.6370    4.9914 H   0  0  0  0  0  0  0  0  0  0  0  0
   35.2449   46.9987    6.0476 H   0  0  0  0  0  0  0  0  0  0  0  0
   34.9021   45.4249    6.7250 H   0  0  0  0  0  0  0  0  0  0  0  0
   31.0112   42.6237    8.8455 H   0  0  0  0  0  0  0  0  0  0  0  0
   31.2090   43.6275   10.3984 H   0  0  0  0  0  0  0  0  0  0  0  0
   31.4378   45.2765    7.3303 H   0  0  0  0  0  0  0  0  0  0  0  0
   27.6419   47.0198    7.8705 H   0  0  0  0  0  0  0  0  0  0  0  0
   27.2284   45.5351    9.7542 H   0  0  0  0  0  0  0  0  0  0  0  0
  1  9  1  0  0  0  0
  1 32  1  6  0  0  0
  2  4  1  0  0  0  0
  2  1  1  0  0  0  0
  3  2  1  0  0  0  0
  4  6  1  0  0  0  0
  5  4  2  0  0  0  0
  6 23  1  0  0  0  0
  6  7  1  0  0  0  0
  6 33  1  6  0  0  0
  7  8  1  0  0  0  0
  9  7  1  0  0  0  0
  9 10  2  0  0  0  0
 11  1  1  0  0  0  0
 11 34  1  0  0  0  0
 11 35  1  0  0  0  0
 12 11  1  0  0  0  0
 12 17  1  0  0  0  0
 13 14  1  0  0  0  0
 13 12  2  0  0  0  0
 14 15  1  0  0  0  0
 15 17  1  0  0  0  0
 15 36  1  0  0  0  0
 16 14  1  0  0  0  0
 17 18  1  0  0  0  0
 19 13  1  0  0  0  0
 20 19  1  0  0  0  0
 20 37  1  0  0  0  0
 20 38  1  0  0  0  0
 20 39  1  0  0  0  0
 21 19  1  0  0  0  0
 21 40  1  0  0  0  0
 21 41  1  0  0  0  0
 21 42  1  0  0  0  0
 22 19  1  0  0  0  0
 22 43  1  0  0  0  0
 22 44  1  0  0  0  0
 22 45  1  0  0  0  0
 23 46  1  0  0  0  0
 23 47  1  0  0  0  0
 24 23  1  0  0  0  0
 24 30  2  0  0  0  0
 25 24  1  0  0  0  0
 25 48  1  0  0  0  0
 26 25  2  0  0  0  0
 26 28  1  0  0  0  0
 27 26  1  0  0  0  0
 28 29  2  0  0  0  0
 28 49  1  0  0  0  0
 29 30  1  0  0  0  0
 29 50  1  0  0  0  0
 30 31  1  0  0  0  0
M  END
>  <REMARK>
 VINA RESULT:      -7.3      4.338      8.303
  5 active torsions:
  status: ('A' for Active; 'I' for Inactive)
    1  A    between atoms: C_2  and  C_5 
    2  A    between atoms: C_6  and  C_7 
    3  A    between atoms: C_7  and  CA_8 
    4  A    between atoms: CA_13  and  C_14 
    5  A    between atoms: C_14  and  C_15 

>  <TORSDO>
F 5

$$$$
resistance_project/docking/5319283d3047ac55/Q9UM73_L1196M/docked/molecule_0005_out.pdbqt
 OpenBabel09232609193D

 50 52  0  0  1  0  0  0  0  0999 V2000
   29.3060   47.8060    7.2720 C   0  0  1  0  0  0  0  0  0  0  0  0
   30.0510   47.5400    6.1600 N   0  0  0  0  0  0  0  0  0  0  0  0
   29.9290   48.0900    5.3090 H   0  0  0  0  0  0  0  0  0  0  0  0
   30.9490   46.5380    6.2060 C   0  0  0  0  0  0  0  0  0  0  0  0
   31.6690   46.2430    5.2120 O   0  0  0  0  0  0  0  0  0  0  0  0
   31.1360   45.7780    7.3420 C   0  0  2  0  0  0  0  0  0  0  0  0
   30.3930   46.0540    8.4310 N   0  0  0  0  0  0  0  0  0  0  0  0
   30.5210   45.4990    9.2770 H   0  0  0  0  0  0  0  0  0  0  0  0
   29.4820   47.0480    8.4260 C   0  0  0  0  0  0  0  0  0  0  0  0
   28.7810   47.3190    9.4330 O   0  0  0  0  0  0  0  0  0  0  0  0
   28.4480   48.7880    7.1760 C   0  0  0  0  0  0  0  0  0  0  0  0
   27.0170   48.7120    7.1450 C   0  0  0  0  0  0  0  0  0  0  0  0
   26.2140   49.5880    6.4230 C   0  0  0  0  0  0  0  0  0  0  0  0
   24.9480   49.2210    6.6270 N   0  0  0  0  0  0  0  0  0  0  0  0
   24.9470   48.1550    7.4470 C   0  0  0  0  0  0  0  0  0  0  0  0
   24.1220   49.6710    6.2300 H   0  0  0  0  0  0  0  0  0  0  0  0
   26.2220   47.8460    7.7630 N   0  0  0  0  0  0  0  0  0  0  0  0
   26.5220   47.0830    8.3690 H   0  0  0  0  0  0  0  0  0  0  0  0
   26.6920   50.7170    5.5830 C   0  0  0  0  0  0  0  0  0  0  0  0
   27.3290   51.8130    6.4180 C   0  0  0  0  0  0  0  0  0  0  0  0
   25.5140   51.3530    4.8560 C   0  0  0  0  0  0  0  0  0  0  0  0
   27.6380   50.1880    4.5350 C   0  0  0  0  0  0  0  0  0  0  0  0
   32.0140   44.7860    7.4160 C   0  0  0  0  0  0  0  0  0  0  0  0
   32.8960   44.5790    8.5330 C   0  0  0  0  0  0  0  0  0  0  0  0
   34.0200   45.3660    8.6800 C   0  0  0  0  0  0  0  0  0  0  0  0
   34.8350   45.1280    9.7680 C   0  0  0  0  0  0  0  0  0  0  0  0
   35.9560   45.8840    9.9490 F   0  0  0  0  0  0  0  0  0  0  0  0
   34.5560   44.1330   10.7030 C   0  0  0  0  0  0  0  0  0  0  0  0
   33.4180   43.3550   10.5320 C   0  0  0  0  0  0  0  0  0  0  0  0
   32.5960   43.5810    9.4520 C   0  0  0  0  0  0  0  0  0  0  0  0
   31.5020   42.8270    9.2940 F   0  0  0  0  0  0  0  0  0  0  0  0
   29.0285   47.6088    8.2864 H   0  0  0  0  0  0  0  0  0  0  0  0
   31.6942   45.5987    6.4469 H   0  0  0  0  0  0  0  0  0  0  0  0
   28.6671   49.4210    8.0103 H   0  0  0  0  0  0  0  0  0  0  0  0
   28.6171   49.0495    6.1523 H   0  0  0  0  0  0  0  0  0  0  0  0
   24.4872   47.3236    6.9548 H   0  0  0  0  0  0  0  0  0  0  0  0
   27.6584   52.6039    5.7770 H   0  0  0  0  0  0  0  0  0  0  0  0
   28.1664   51.4140    6.9513 H   0  0  0  0  0  0  0  0  0  0  0  0
   26.6112   52.1937    7.1143 H   0  0  0  0  0  0  0  0  0  0  0  0
   25.8633   52.1649    4.2529 H   0  0  0  0  0  0  0  0  0  0  0  0
   24.8082   51.7186    5.5722 H   0  0  0  0  0  0  0  0  0  0  0  0
   25.0431   50.6222    4.2322 H   0  0  0  0  0  0  0  0  0  0  0  0
   27.9854   50.9971    3.9271 H   0  0  0  0  0  0  0  0  0  0  0  0
   27.1282   49.4745    3.9219 H   0  0  0  0  0  0  0  0  0  0  0  0
   28.4718   49.7170    5.0123 H   0  0  0  0  0  0  0  0  0  0  0  0
   32.6481   44.8944    6.5610 H   0  0  0  0  0  0  0  0  0  0  0  0
   31.3628   43.9422    7.5096 H   0  0  0  0  0  0  0  0  0  0  0  0
   34.2438   46.1082    7.9987 H   0  0  0  0  0  0  0  0  0  0  0  0
   35.1832   43.9771   11.5075 H   0  0  0  0  0  0  0  0  0  0  0  0
   33.1904   42.6119   11.2110 H   0  0  0  0  0  0  0  0  0  0  0  0
  1  9  1  0  0  0  0
  1 32  1  6  0  0  0
  2  4  1  0  0  0  0
  2  1  1  0  0  0  0
  3  2  1  0  0  0  0
  4  6  1  0  0  0  0
  5  4  2  0  0  0  0
  6 23  1  0  0  0  0
  6  7  1  0  0  0  0
  6 33  1  6  0  0  0
  7  8  1  0  0  0  0
  9  7  1  0  0  0  0
  9 10  2  0  0  0  0
 11  1  1  0  0  0  0
 11 34  1  0  0  0  0
 11 35  1  0  0  0  0
 12 11  1  0  0  0  0
 12 17  1  0  0  0  0
 13 14  1  0  0  0  0
 13 12  2  0  0  0  0
 14 15  1  0  0  0  0
 15 17  1  0  0  0  0
 15 36  1  0  0  0  0
 16 14  1  0  0  0  0
 17 18  1  0  0  0  0
 19 20  1  0  0  0  0
 19 13  1  0  0  0  0
 20 37  1  0  0  0  0
 20 38  1  0  0  0  0
 20 39  1  0  0  0  0
 21 19  1  0  0  0  0
 21 40  1  0  0  0  0
 21 41  1  0  0  0  0
 21 42  1  0  0  0  0
 22 19  1  0  0  0  0
 22 43  1  0  0  0  0
 22 44  1  0  0  0  0
 22 45  1  0  0  0  0
 23 24  1  0  0  0  0
 23 46  1  0  0  0  0
 23 47  1  0  0  0  0
 24 25  2  0  0  0  0
 24 30  1  0  0  0  0
 25 26  1  0  0  0  0
 25 48  1  0  0  0  0
 26 27  1  0  0  0  0
 26 28  2  0  0  0  0
 28 49  1  0  0  0  0
 29 28  1  0  0  0  0
 29 50  1  0  0  0  0
 30 29  2  0  0  0  0
 31 30  1  0  0  0  0
M  END
>  <REMARK>
 VINA RESULT:      -7.3      1.470      2.158
  5 active torsions:
  status: ('A' for Active; 'I' for Inactive)
    1  A    between atoms: C_2  and  C_5 
    2  A    between atoms: C_6  and  C_7 
    3  A    between atoms: C_7  and  CA_8 
    4  A    between atoms: CA_13  and  C_14 
    5  A    between atoms: C_14  and  C_15 

>  <TORSDO>
F 5

$$$$
resistance_project/docking/5319283d3047ac55/Q9UM73_L1196M/docked/molecule_0005_out.pdbqt
 OpenBabel09232609193D

 50 52  0  0  1  0  0  0  0  0999 V2000
   34.8350   47.9120    7.6660 C   0  0  1  0  0  0  0  0  0  0  0  0
   34.3270   47.8390    6.4020 N   0  0  0  0  0  0  0  0  0  0  0  0
   34.7400   48.3830    5.6440 H   0  0  0  0  0  0  0  0  0  0  0  0
   33.2700   47.0370    6.1740 C   0  0  0  0  0  0  0  0  0  0  0  0
   32.7530   46.9260    5.0260 O   0  0  0  0  0  0  0  0  0  0  0  0
   32.6910   46.2900    7.1780 C   0  0  1  0  0  0  0  0  0  0  0  0
   33.2050   46.3730    8.4200 N   0  0  0  0  0  0  0  0  0  0  0  0
   32.7860   45.8260    9.1720 H   0  0  0  0  0  0  0  0  0  0  0  0
   34.2620   47.1640    8.6900 C   0  0  0  0  0  0  0  0  0  0  0  0
   34.7540   47.2530    9.8430 O   0  0  0  0  0  0  0  0  0  0  0  0
   35.8610   48.7040    7.8350 C   0  0  0  0  0  0  0  0  0  0  0  0
   37.2450   48.3480    7.9490 C   0  0  0  0  0  0  0  0  0  0  0  0
   38.2850   49.1310    7.4600 C   0  0  0  0  0  0  0  0  0  0  0  0
   39.4230   48.4940    7.7410 N   0  0  0  0  0  0  0  0  0  0  0  0
   39.1170   47.3520    8.3810 C   0  0  0  0  0  0  0  0  0  0  0  0
   40.3630   48.8180    7.5100 H   0  0  0  0  0  0  0  0  0  0  0  0
   37.7770   47.2660    8.5060 N   0  0  0  0  0  0  0  0  0  0  0  0
   37.2630   46.5060    8.9510 H   0  0  0  0  0  0  0  0  0  0  0  0
   38.1400   50.4330    6.7600 C   0  0  0  0  0  0  0  0  0  0  0  0
   37.3050   50.3070    5.4970 C   0  0  0  0  0  0  0  0  0  0  0  0
   39.5100   50.9410    6.3260 C   0  0  0  0  0  0  0  0  0  0  0  0
   37.5630   51.4480    7.7140 C   0  0  0  0  0  0  0  0  0  0  0  0
   31.6490   45.4920    6.9820 C   0  0  0  0  0  0  0  0  0  0  0  0
   30.4310   45.5630    7.7450 C   0  0  0  0  0  0  0  0  0  0  0  0
   30.2090   44.6700    8.7740 C   0  0  0  0  0  0  0  0  0  0  0  0
   29.0250   44.7800    9.4760 C   0  0  0  0  0  0  0  0  0  0  0  0
   28.7670   43.9160   10.4990 F   0  0  0  0  0  0  0  0  0  0  0  0
   28.0700   45.7480    9.1770 C   0  0  0  0  0  0  0  0  0  0  0  0
   28.3180   46.6350    8.1360 C   0  0  0  0  0  0  0  0  0  0  0  0
   29.4940   46.5380    7.4270 C   0  0  0  0  0  0  0  0  0  0  0  0
   29.7270   47.3950    6.4270 F   0  0  0  0  0  0  0  0  0  0  0  0
   34.8214   47.6599    8.7058 H   0  0  0  0  0  0  0  0  0  0  0  0
   32.3355   46.2458    6.1697 H   0  0  0  0  0  0  0  0  0  0  0  0
   35.6443   49.2381    8.7365 H   0  0  0  0  0  0  0  0  0  0  0  0
   35.8881   49.1412    6.8588 H   0  0  0  0  0  0  0  0  0  0  0  0
   39.5688   47.3518    9.3509 H   0  0  0  0  0  0  0  0  0  0  0  0
   37.7467   49.5794    4.8486 H   0  0  0  0  0  0  0  0  0  0  0  0
   37.2674   51.2530    4.9985 H   0  0  0  0  0  0  0  0  0  0  0  0
   36.3129   49.9998    5.7545 H   0  0  0  0  0  0  0  0  0  0  0  0
   39.9503   50.2424    5.6456 H   0  0  0  0  0  0  0  0  0  0  0  0
   40.1393   51.0476    7.1848 H   0  0  0  0  0  0  0  0  0  0  0  0
   39.4020   51.8896    5.8430 H   0  0  0  0  0  0  0  0  0  0  0  0
   37.4568   52.3878    7.2136 H   0  0  0  0  0  0  0  0  0  0  0  0
   38.2181   51.5623    8.5523 H   0  0  0  0  0  0  0  0  0  0  0  0
   36.6046   51.1142    8.0531 H   0  0  0  0  0  0  0  0  0  0  0  0
   32.0168   44.4958    7.1133 H   0  0  0  0  0  0  0  0  0  0  0  0
   31.3109   45.8275    6.0239 H   0  0  0  0  0  0  0  0  0  0  0  0
   30.9042   43.9449    9.0106 H   0  0  0  0  0  0  0  0  0  0  0  0
   27.1935   45.8059    9.7187 H   0  0  0  0  0  0  0  0  0  0  0  0
   27.6252   47.3614    7.8962 H   0  0  0  0  0  0  0  0  0  0  0  0
  1 11  1  0  0  0  0
  1  9  1  0  0  0  0
  1 32  1  1  0  0  0
  2  1  1  0  0  0  0
  3  2  1  0  0  0  0
  4  2  1  0  0  0  0
  4  6  1  0  0  0  0
  5  4  2  0  0  0  0
  6  7  1  0  0  0  0
  6 33  1  6  0  0  0
  7  9  1  0  0  0  0
  7  8  1  0  0  0  0
  9 10  2  0  0  0  0
 11 12  1  0  0  0  0
 11 34  1  0  0  0  0
 11 35  1  0  0  0  0
 12 17  1  0  0  0  0
 13 14  1  0  0  0  0
 13 12  2  0  0  0  0
 14 15  1  0  0  0  0
 15 17  1  0  0  0  0
 15 36  1  0  0  0  0
 16 14  1  0  0  0  0
 17 18  1  0  0  0  0
 19 13  1  0  0  0  0
 19 22  1  0  0  0  0
 20 19  1  0  0  0  0
 20 37  1  0  0  0  0
 20 38  1  0  0  0  0
 20 39  1  0  0  0  0
 21 19  1  0  0  0  0
 21 40  1  0  0  0  0
 21 41  1  0  0  0  0
 21 42  1  0  0  0  0
 22 43  1  0  0  0  0
 22 44  1  0  0  0  0
 22 45  1  0  0  0  0
 23  6  1  0  0  0  0
 23 24  1  0  0  0  0
 23 46  1  0  0  0  0
 23 47  1  0  0  0  0
 24 25  1  0  0  0  0
 25 26  2  0  0  0  0
 25 48  1  0  0  0  0
 26 27  1  0  0  0  0
 28 26  1  0  0  0  0
 28 49  1  0  0  0  0
 29 28  2  0  0  0  0
 29 50  1  0  0  0  0
 30 24  2  0  0  0  0
 30 29  1  0  0  0  0
 31 30  1  0  0  0  0
M  END
>  <REMARK>
 VINA RESULT:      -7.2      5.497      8.301
  5 active torsions:
  status: ('A' for Active; 'I' for Inactive)
    1  A    between atoms: C_2  and  C_5 
    2  A    between atoms: C_6  and  C_7 
    3  A    between atoms: C_7  and  CA_8 
    4  A    between atoms: CA_13  and  C_14 
    5  A    between atoms: C_14  and  C_15 

>  <TORSDO>
F 5

$$$$
