resistance_project/docking/5319283d3047ac55/Q9UM73_L1196M/docked/molecule_0003_out.pdbqt
 OpenBabel09232609183D

 79 83  0  0  1  0  0  0  0  0999 V2000
   28.4810   48.6630    6.5120 C   0  0  2  0  0  0  0  0  0  0  0  0
   29.6620   48.3880    5.9860 N   0  0  0  0  0  0  0  0  0  0  0  0
   30.0610   48.9820    5.2590 H   0  0  0  0  0  0  0  0  0  0  0  0
   30.3380   47.2840    6.4390 C   0  0  0  0  0  0  0  0  0  0  0  0
   29.7410   46.5130    7.4280 C   0  0  0  0  0  0  0  0  0  0  0  0
   30.3620   45.3810    7.9100 C   0  0  0  0  0  0  0  0  0  0  0  0
   29.7790   44.6020    8.8660 C   0  0  0  0  0  0  0  0  0  0  0  0
   28.5380   44.8850    9.4200 C   0  0  0  0  0  0  0  0  0  0  0  0
   27.8950   46.0370    8.9390 C   0  0  0  0  0  0  0  0  0  0  0  0
   28.5080   46.8120    7.9660 C   0  0  0  0  0  0  0  0  0  0  0  0
   27.8900   47.9060    7.4850 N   0  0  0  0  0  0  0  0  0  0  0  0
   26.9760   48.1730    7.8490 H   0  0  0  0  0  0  0  0  0  0  0  0
   31.5660   47.0290    5.8480 N   0  0  0  0  0  0  0  0  0  0  0  0
   31.5390   46.8120    4.8510 H   0  0  0  0  0  0  0  0  0  0  0  0
   32.8250   47.0270    6.4250 C   0  0  0  0  0  0  0  0  0  0  0  0
   33.6530   45.9410    6.2120 C   0  0  0  0  0  0  0  0  0  0  0  0
   34.9350   45.9440    6.7390 C   0  0  0  0  0  0  0  0  0  0  0  0
   35.4420   46.9920    7.4800 C   0  0  0  0  0  0  0  0  0  0  0  0
   34.6000   48.0650    7.6810 C   0  0  0  0  0  0  0  0  0  0  0  0
   33.3270   48.1020    7.1770 C   0  0  0  0  0  0  0  0  0  0  0  0
   36.7720   46.9690    8.0300 N   0  0  0  0  0  0  0  0  0  0  0  0
   37.1670   45.8730    8.9150 C   0  0  0  0  0  0  0  0  0  0  0  0
   38.6390   45.5920    8.6870 C   0  0  0  0  0  0  0  0  0  0  0  0
   39.0970   46.0610    7.4180 N   0  0  0  0  0  0  0  0  0  0  0  0
   38.6380   45.2600    6.2990 C   0  0  0  0  0  0  0  0  0  0  0  0
   38.9800   47.4700    7.2290 C   0  0  0  0  0  0  0  0  0  0  0  0
   37.6630   48.0490    7.6720 C   0  0  0  0  0  0  0  0  0  0  0  0
   27.7010   49.7960    6.0880 N   0  0  2  0  0  0  0  0  0  0  0  0
   26.7050   50.4050    6.9610 C   0  0  0  0  0  0  0  0  0  0  0  0
   27.2710   51.8250    7.2150 C   0  0  0  0  0  0  0  0  0  0  0  0
   27.6470   52.4820    5.9480 C   0  0  1  0  0  0  0  0  0  0  0  0
   27.3530   51.7100    4.7070 C   0  0  0  0  0  0  0  0  0  0  0  0
   27.9350   50.3210    4.7260 C   0  0  0  0  0  0  0  0  0  0  0  0
   27.5980   53.9480    5.8620 C   0  0  0  0  0  0  0  0  0  0  0  0
   28.3540   54.5990    6.9530 C   0  0  0  0  0  0  0  0  0  0  0  0
   27.7360   55.3500    7.9990 N   0  0  0  0  0  0  0  0  0  0  0  0
   26.7340   55.5360    8.0090 H   0  0  0  0  0  0  0  0  0  0  0  0
   29.6170   54.5150    7.0120 O   0  0  0  0  0  0  0  0  0  0  0  0
   28.6300   55.8380    9.0630 C   0  0  0  0  0  0  0  0  0  0  0  0
   27.8530   56.9050    9.8060 C   0  0  0  0  0  0  0  0  0  0  0  0
   30.4060   43.4580    9.3490 O   0  0  0  0  0  0  0  0  0  0  0  0
   31.8280   43.3920    9.3970 C   0  0  0  0  0  0  0  0  0  0  0  0
   31.2883   45.1169    7.5396 H   0  0  0  0  0  0  0  0  0  0  0  0
   28.6699   45.0008   10.4755 H   0  0  0  0  0  0  0  0  0  0  0  0
   26.9696   46.3059    9.3083 H   0  0  0  0  0  0  0  0  0  0  0  0
   33.3188   45.1329    5.6640 H   0  0  0  0  0  0  0  0  0  0  0  0
   35.5385   45.1243    6.5693 H   0  0  0  0  0  0  0  0  0  0  0  0
   34.9411   48.8690    8.2308 H   0  0  0  0  0  0  0  0  0  0  0  0
   32.7316   48.9267    7.3512 H   0  0  0  0  0  0  0  0  0  0  0  0
   36.5917   44.9994    8.6897 H   0  0  0  0  0  0  0  0  0  0  0  0
   36.9941   46.1403    9.9366 H   0  0  0  0  0  0  0  0  0  0  0  0
   39.2036   46.0768    9.4558 H   0  0  0  0  0  0  0  0  0  0  0  0
   38.7737   44.5307    8.7085 H   0  0  0  0  0  0  0  0  0  0  0  0
   39.0189   45.6699    5.3870 H   0  0  0  0  0  0  0  0  0  0  0  0
   37.5683   45.2640    6.2725 H   0  0  0  0  0  0  0  0  0  0  0  0
   38.9882   44.2553    6.4122 H   0  0  0  0  0  0  0  0  0  0  0  0
   39.1042   47.6795    6.1871 H   0  0  0  0  0  0  0  0  0  0  0  0
   39.7337   47.9237    7.8381 H   0  0  0  0  0  0  0  0  0  0  0  0
   37.2345   48.6182    6.8737 H   0  0  0  0  0  0  0  0  0  0  0  0
   37.8145   48.6883    8.5165 H   0  0  0  0  0  0  0  0  0  0  0  0
   26.6139   49.8596    7.8770 H   0  0  0  0  0  0  0  0  0  0  0  0
   25.7246   50.4164    6.5324 H   0  0  0  0  0  0  0  0  0  0  0  0
   26.5263   52.4151    7.7070 H   0  0  0  0  0  0  0  0  0  0  0  0
   28.1457   51.7379    7.8251 H   0  0  0  0  0  0  0  0  0  0  0  0
   28.7119   52.4058    6.0193 H   0  0  0  0  0  0  0  0  0  0  0  0
   26.2915   51.6334    4.5966 H   0  0  0  0  0  0  0  0  0  0  0  0
   27.8029   52.2343    3.8899 H   0  0  0  0  0  0  0  0  0  0  0  0
   28.9837   50.3551    4.5164 H   0  0  0  0  0  0  0  0  0  0  0  0
   27.4817   49.6975    3.9839 H   0  0  0  0  0  0  0  0  0  0  0  0
   26.5765   54.2620    5.9160 H   0  0  0  0  0  0  0  0  0  0  0  0
   28.0468   54.2370    4.9347 H   0  0  0  0  0  0  0  0  0  0  0  0
   29.5200   56.2539    8.6389 H   0  0  0  0  0  0  0  0  0  0  0  0
   28.9298   55.0455    9.7165 H   0  0  0  0  0  0  0  0  0  0  0  0
   27.5698   57.6797    9.1244 H   0  0  0  0  0  0  0  0  0  0  0  0
   28.4651   57.3176   10.5806 H   0  0  0  0  0  0  0  0  0  0  0  0
   26.9753   56.4714   10.2379 H   0  0  0  0  0  0  0  0  0  0  0  0
   32.1279   42.4446    9.7938 H   0  0  0  0  0  0  0  0  0  0  0  0
   32.2005   44.1752   10.0237 H   0  0  0  0  0  0  0  0  0  0  0  0
   32.2239   43.5066    8.4096 H   0  0  0  0  0  0  0  0  0  0  0  0
  1  2  1  6  0  0  0
  1 11  1  0  0  0  0
  2  4  1  0  0  0  0
  3  2  1  0  0  0  0
  4  5  2  0  0  0  0
  5  6  1  0  0  0  0
  5 10  1  0  0  0  0
  6  7  2  0  0  0  0
  6 43  1  0  0  0  0
  7 41  1  0  0  0  0
  7  8  1  0  0  0  0
  8 44  1  0  0  0  0
  9  8  1  0  0  0  0
  9 45  1  0  0  0  0
 10  9  2  0  0  0  0
 11 12  1  0  0  0  0
 11 10  1  0  0  0  0
 13 15  1  0  0  0  0
 13  4  1  0  0  0  0
 14 13  1  0  0  0  0
 15 20  1  0  0  0  0
 16 15  2  0  0  0  0
 16 17  1  0  0  0  0
 16 46  1  0  0  0  0
 17 18  2  0  0  0  0
 17 47  1  0  0  0  0
 18 19  1  0  0  0  0
 18 21  1  0  0  0  0
 19 48  1  0  0  0  0
 20 19  2  0  0  0  0
 20 49  1  0  0  0  0
 21 22  1  0  0  0  0
 22 50  1  0  0  0  0
 22 51  1  0  0  0  0
 23 22  1  0  0  0  0
 23 52  1  0  0  0  0
 23 53  1  0  0  0  0
 24 23  1  0  0  0  0
 25 24  1  0  0  0  0
 25 54  1  0  0  0  0
 25 55  1  0  0  0  0
 25 56  1  0  0  0  0
 26 24  1  0  0  0  0
 26 27  1  0  0  0  0
 26 57  1  0  0  0  0
 26 58  1  0  0  0  0
 27 21  1  0  0  0  0
 27 59  1  0  0  0  0
 27 60  1  0  0  0  0
 28 33  1  6  0  0  0
 28  1  1  0  0  0  0
 28 29  1  0  0  0  0
 29 30  1  0  0  0  0
 29 61  1  0  0  0  0
 29 62  1  0  0  0  0
 30 63  1  0  0  0  0
 30 64  1  0  0  0  0
 31 30  1  0  0  0  0
 31 65  1  1  0  0  0
 32 33  1  0  0  0  0
 32 31  1  0  0  0  0
 32 66  1  0  0  0  0
 32 67  1  0  0  0  0
 33 68  1  0  0  0  0
 33 69  1  0  0  0  0
 34 31  1  0  0  0  0
 34 35  1  0  0  0  0
 34 70  1  0  0  0  0
 34 71  1  0  0  0  0
 35 38  2  0  0  0  0
 35 36  1  0  0  0  0
 36 37  1  0  0  0  0
 36 39  1  0  0  0  0
 39 40  1  0  0  0  0
 39 72  1  0  0  0  0
 39 73  1  0  0  0  0
 40 74  1  0  0  0  0
 40 75  1  0  0  0  0
 40 76  1  0  0  0  0
 41 42  1  0  0  0  0
 42 77  1  0  0  0  0
 42 78  1  0  0  0  0
 42 79  1  0  0  0  0
M  END
>  <MODEL>
1

>  <REMARK>
 VINA RESULT:      -8.2      0.000      0.000
  8 active torsions:
  status: ('A' for Active; 'I' for Inactive)
    1  A    between atoms: C_2  and  N_3 
       I    between atoms: N_3  and  C_5 
    2  A    between atoms: C_5  and  C_7 
    3  A    between atoms: C_7  and  C_8 
    4  A    between atoms: N_11  and  C_12 
    5  A    between atoms: C_15  and  N_16 
    6  A    between atoms: N_16  and  C_18 
    7  A    between atoms: C_21  and  N_22 
    8  A    between atoms: C_33  and  O_34 

>  <TORSDO>
F 8

$$$$
resistance_project/docking/5319283d3047ac55/Q9UM73_L1196M/docked/molecule_0003_out.pdbqt
 OpenBabel09232609183D

 79 83  0  0  1  0  0  0  0  0999 V2000
   27.6280   47.9810    7.4490 C   0  0  2  0  0  0  0  0  0  0  0  0
   28.6790   48.0820    6.6540 N   0  0  0  0  0  0  0  0  0  0  0  0
   28.7360   48.8230    5.9550 H   0  0  0  0  0  0  0  0  0  0  0  0
   29.6920   47.1670    6.7900 C   0  0  0  0  0  0  0  0  0  0  0  0
   29.5550   46.1800    7.7580 C   0  0  0  0  0  0  0  0  0  0  0  0
   30.5290   45.2200    7.9290 C   0  0  0  0  0  0  0  0  0  0  0  0
   30.3990   44.2330    8.8610 C   0  0  0  0  0  0  0  0  0  0  0  0
   29.2970   44.1210    9.6970 C   0  0  0  0  0  0  0  0  0  0  0  0
   28.2970   45.0930    9.5340 C   0  0  0  0  0  0  0  0  0  0  0  0
   28.4520   46.0870    8.5790 C   0  0  0  0  0  0  0  0  0  0  0  0
   27.4900   47.0100    8.4030 N   0  0  0  0  0  0  0  0  0  0  0  0
   26.6530   46.9870    8.9840 H   0  0  0  0  0  0  0  0  0  0  0  0
   30.7670   47.3050    5.9250 N   0  0  0  0  0  0  0  0  0  0  0  0
   30.5310   47.5550    4.9650 H   0  0  0  0  0  0  0  0  0  0  0  0
   32.1180   47.1510    6.1870 C   0  0  0  0  0  0  0  0  0  0  0  0
   32.7160   47.9840    7.1140 C   0  0  0  0  0  0  0  0  0  0  0  0
   34.0550   47.8110    7.4270 C   0  0  0  0  0  0  0  0  0  0  0  0
   34.8430   46.8340    6.8530 C   0  0  0  0  0  0  0  0  0  0  0  0
   34.2270   46.0130    5.9320 C   0  0  0  0  0  0  0  0  0  0  0  0
   32.9060   46.1500    5.5950 C   0  0  0  0  0  0  0  0  0  0  0  0
   36.2350   46.6800    7.1820 N   0  0  0  0  0  0  0  0  0  0  0  0
   36.6240   46.4190    8.5680 C   0  0  0  0  0  0  0  0  0  0  0  0
   37.8490   45.5270    8.5520 C   0  0  0  0  0  0  0  0  0  0  0  0
   37.9880   44.8060    7.3270 N   0  0  0  0  0  0  0  0  0  0  0  0
   37.0370   43.7210    7.1770 C   0  0  0  0  0  0  0  0  0  0  0  0
   38.1410   45.6270    6.1700 C   0  0  0  0  0  0  0  0  0  0  0  0
   37.1930   46.7940    6.1070 C   0  0  0  0  0  0  0  0  0  0  0  0
   26.5180   48.8930    7.3670 N   0  0  2  0  0  0  0  0  0  0  0  0
   26.7180   50.3170    7.1300 C   0  0  0  0  0  0  0  0  0  0  0  0
   26.0550   50.5480    5.7490 C   0  0  0  0  0  0  0  0  0  0  0  0
   24.6970   49.9730    5.7080 C   0  0  1  0  0  0  0  0  0  0  0  0
   24.2120   49.3680    6.9820 C   0  0  0  0  0  0  0  0  0  0  0  0
   25.1580   48.3390    7.5420 C   0  0  0  0  0  0  0  0  0  0  0  0
   23.6930   50.5750    4.8190 C   0  0  0  0  0  0  0  0  0  0  0  0
   22.3270   50.4860    5.3770 C   0  0  0  0  0  0  0  0  0  0  0  0
   21.4750   49.3550    5.1950 N   0  0  0  0  0  0  0  0  0  0  0  0
   21.7440   48.5680    4.6040 H   0  0  0  0  0  0  0  0  0  0  0  0
   21.8380   51.4340    6.0610 O   0  0  0  0  0  0  0  0  0  0  0  0
   20.1880   49.3890    5.9090 C   0  0  0  0  0  0  0  0  0  0  0  0
   20.3270   48.4260    7.0690 C   0  0  0  0  0  0  0  0  0  0  0  0
   31.3830   43.2640    9.0300 O   0  0  0  0  0  0  0  0  0  0  0  0
   32.3470   43.0420    8.0050 C   0  0  0  0  0  0  0  0  0  0  0  0
   31.3751   45.2487    7.3389 H   0  0  0  0  0  0  0  0  0  0  0  0
   29.6458   44.1769   10.7070 H   0  0  0  0  0  0  0  0  0  0  0  0
   27.4497   45.0680   10.1226 H   0  0  0  0  0  0  0  0  0  0  0  0
   32.1686   48.7304    7.5704 H   0  0  0  0  0  0  0  0  0  0  0  0
   34.4830   48.4425    8.1220 H   0  0  0  0  0  0  0  0  0  0  0  0
   34.7809   45.2686    5.4803 H   0  0  0  0  0  0  0  0  0  0  0  0
   32.4864   45.5124    4.9004 H   0  0  0  0  0  0  0  0  0  0  0  0
   35.8246   45.9284    9.0830 H   0  0  0  0  0  0  0  0  0  0  0  0
   36.8404   47.3377    9.0720 H   0  0  0  0  0  0  0  0  0  0  0  0
   38.7179   46.1356    8.6918 H   0  0  0  0  0  0  0  0  0  0  0  0
   37.7381   44.8104    9.3388 H   0  0  0  0  0  0  0  0  0  0  0  0
   37.2012   43.2297    6.2408 H   0  0  0  0  0  0  0  0  0  0  0  0
   36.0417   44.1128    7.2044 H   0  0  0  0  0  0  0  0  0  0  0  0
   37.1666   43.0202    7.9751 H   0  0  0  0  0  0  0  0  0  0  0  0
   39.1411   46.0071    6.1591 H   0  0  0  0  0  0  0  0  0  0  0  0
   37.9210   45.0085    5.3250 H   0  0  0  0  0  0  0  0  0  0  0  0
   36.6805   46.7896    5.1677 H   0  0  0  0  0  0  0  0  0  0  0  0
   37.7390   47.7090    6.2047 H   0  0  0  0  0  0  0  0  0  0  0  0
   26.2392   50.9021    7.8872 H   0  0  0  0  0  0  0  0  0  0  0  0
   27.7488   50.6032    7.1515 H   0  0  0  0  0  0  0  0  0  0  0  0
   25.9948   51.5998    5.5620 H   0  0  0  0  0  0  0  0  0  0  0  0
   26.6503   50.0662    5.0018 H   0  0  0  0  0  0  0  0  0  0  0  0
   24.8888   49.1123    5.1019 H   0  0  0  0  0  0  0  0  0  0  0  0
   23.2677   48.8993    6.7991 H   0  0  0  0  0  0  0  0  0  0  0  0
   24.1339   50.1562    7.7014 H   0  0  0  0  0  0  0  0  0  0  0  0
   25.0614   47.4166    7.0084 H   0  0  0  0  0  0  0  0  0  0  0  0
   24.9487   48.1351    8.5713 H   0  0  0  0  0  0  0  0  0  0  0  0
   23.9381   51.6060    4.6708 H   0  0  0  0  0  0  0  0  0  0  0  0
   23.7061   50.0346    3.8956 H   0  0  0  0  0  0  0  0  0  0  0  0
   19.3953   49.0781    5.2610 H   0  0  0  0  0  0  0  0  0  0  0  0
   19.9537   50.3770    6.2465 H   0  0  0  0  0  0  0  0  0  0  0  0
   20.5607   47.4505    6.6967 H   0  0  0  0  0  0  0  0  0  0  0  0
   19.4069   48.3888    7.6139 H   0  0  0  0  0  0  0  0  0  0  0  0
   21.1117   48.7581    7.7162 H   0  0  0  0  0  0  0  0  0  0  0  0
   33.0182   42.2660    8.3086 H   0  0  0  0  0  0  0  0  0  0  0  0
   32.8980   43.9428    7.8324 H   0  0  0  0  0  0  0  0  0  0  0  0
   31.8489   42.7504    7.1040 H   0  0  0  0  0  0  0  0  0  0  0  0
  1  2  1  6  0  0  0
  1 11  1  0  0  0  0
  2  4  1  0  0  0  0
  3  2  1  0  0  0  0
  4  5  2  0  0  0  0
  5  6  1  0  0  0  0
  5 10  1  0  0  0  0
  6  7  2  0  0  0  0
  6 43  1  0  0  0  0
  7 41  1  0  0  0  0
  7  8  1  0  0  0  0
  8 44  1  0  0  0  0
  9  8  1  0  0  0  0
  9 45  1  0  0  0  0
 10  9  2  0  0  0  0
 11 10  1  0  0  0  0
 11 12  1  0  0  0  0
 13 15  1  0  0  0  0
 13  4  1  0  0  0  0
 14 13  1  0  0  0  0
 15 16  2  0  0  0  0
 16 17  1  0  0  0  0
 16 46  1  0  0  0  0
 17 47  1  0  0  0  0
 18 21  1  0  0  0  0
 18 17  2  0  0  0  0
 19 18  1  0  0  0  0
 19 48  1  0  0  0  0
 20 19  2  0  0  0  0
 20 15  1  0  0  0  0
 20 49  1  0  0  0  0
 21 22  1  0  0  0  0
 22 50  1  0  0  0  0
 22 51  1  0  0  0  0
 23 22  1  0  0  0  0
 23 52  1  0  0  0  0
 23 53  1  0  0  0  0
 24 23  1  0  0  0  0
 25 24  1  0  0  0  0
 25 54  1  0  0  0  0
 25 55  1  0  0  0  0
 25 56  1  0  0  0  0
 26 24  1  0  0  0  0
 26 57  1  0  0  0  0
 26 58  1  0  0  0  0
 27 26  1  0  0  0  0
 27 21  1  0  0  0  0
 27 59  1  0  0  0  0
 27 60  1  0  0  0  0
 28 29  1  1  0  0  0
 28  1  1  0  0  0  0
 28 33  1  0  0  0  0
 29 61  1  0  0  0  0
 29 62  1  0  0  0  0
 30 29  1  0  0  0  0
 30 63  1  0  0  0  0
 30 64  1  0  0  0  0
 31 30  1  0  0  0  0
 31 32  1  0  0  0  0
 31 65  1  6  0  0  0
 32 33  1  0  0  0  0
 32 66  1  0  0  0  0
 32 67  1  0  0  0  0
 33 68  1  0  0  0  0
 33 69  1  0  0  0  0
 34 35  1  0  0  0  0
 34 31  1  0  0  0  0
 34 70  1  0  0  0  0
 34 71  1  0  0  0  0
 35 38  2  0  0  0  0
 36 35  1  0  0  0  0
 36 39  1  0  0  0  0
 37 36  1  0  0  0  0
 39 40  1  0  0  0  0
 39 72  1  0  0  0  0
 39 73  1  0  0  0  0
 40 74  1  0  0  0  0
 40 75  1  0  0  0  0
 40 76  1  0  0  0  0
 42 41  1  0  0  0  0
 42 77  1  0  0  0  0
 42 78  1  0  0  0  0
 42 79  1  0  0  0  0
M  END
>  <REMARK>
 VINA RESULT:      -8.1      2.771      4.043
  8 active torsions:
  status: ('A' for Active; 'I' for Inactive)
    1  A    between atoms: C_2  and  N_3 
       I    between atoms: N_3  and  C_5 
    2  A    between atoms: C_5  and  C_7 
    3  A    between atoms: C_7  and  C_8 
    4  A    between atoms: N_11  and  C_12 
    5  A    between atoms: C_15  and  N_16 
    6  A    between atoms: N_16  and  C_18 
    7  A    between atoms: C_21  and  N_22 
    8  A    between atoms: C_33  and  O_34 

>  <TORSDO>
F 8

$$$$
resistance_project/docking/5319283d3047ac55/Q9UM73_L1196M/docked/molecule_0003_out.pdbqt
 OpenBabel09232609183D

 79 83  0  0  1  0  0  0  0  0999 V2000
   27.7630   47.8820    7.4280 C   0  0  2  0  0  0  0  0  0  0  0  0
   28.7610   48.0360    6.5760 N   0  0  0  0  0  0  0  0  0  0  0  0
   28.7490   48.7880    5.8870 H   0  0  0  0  0  0  0  0  0  0  0  0
   29.8150   47.1590    6.6390 C   0  0  0  0  0  0  0  0  0  0  0  0
   29.7720   46.1540    7.5960 C   0  0  0  0  0  0  0  0  0  0  0  0
   30.7900   45.2310    7.6950 C   0  0  0  0  0  0  0  0  0  0  0  0
   30.7520   44.2260    8.6160 C   0  0  0  0  0  0  0  0  0  0  0  0
   29.7050   44.0590    9.5120 C   0  0  0  0  0  0  0  0  0  0  0  0
   28.6610   44.9930    9.4230 C   0  0  0  0  0  0  0  0  0  0  0  0
   28.7220   46.0050    8.4770 C   0  0  0  0  0  0  0  0  0  0  0  0
   27.7170   46.8930    8.3710 N   0  0  0  0  0  0  0  0  0  0  0  0
   26.9160   46.8290    8.9980 H   0  0  0  0  0  0  0  0  0  0  0  0
   30.8320   47.3520    5.7160 N   0  0  0  0  0  0  0  0  0  0  0  0
   30.5580   47.2810    4.7360 H   0  0  0  0  0  0  0  0  0  0  0  0
   32.1700   47.6280    5.9430 C   0  0  0  0  0  0  0  0  0  0  0  0
   32.5020   48.5890    6.8810 C   0  0  0  0  0  0  0  0  0  0  0  0
   33.8350   48.8420    7.1590 C   0  0  0  0  0  0  0  0  0  0  0  0
   34.8740   48.1760    6.5400 C   0  0  0  0  0  0  0  0  0  0  0  0
   34.5220   47.2220    5.6090 C   0  0  0  0  0  0  0  0  0  0  0  0
   33.2160   46.9400    5.3060 C   0  0  0  0  0  0  0  0  0  0  0  0
   36.2530   48.4650    6.8340 N   0  0  0  0  0  0  0  0  0  0  0  0
   37.3070   47.7920    6.0740 C   0  0  0  0  0  0  0  0  0  0  0  0
   38.4690   48.7550    5.9310 C   0  0  0  0  0  0  0  0  0  0  0  0
   38.0770   50.1180    6.0960 N   0  0  0  0  0  0  0  0  0  0  0  0
   37.3290   50.6510    4.9740 C   0  0  0  0  0  0  0  0  0  0  0  0
   37.5270   50.4260    7.3770 C   0  0  0  0  0  0  0  0  0  0  0  0
   36.5280   49.4210    7.8810 C   0  0  0  0  0  0  0  0  0  0  0  0
   26.6150   48.7510    7.4240 N   0  0  2  0  0  0  0  0  0  0  0  0
   26.7550   50.1970    7.3040 C   0  0  0  0  0  0  0  0  0  0  0  0
   26.0740   50.5110    5.9480 C   0  0  0  0  0  0  0  0  0  0  0  0
   24.7400   49.8860    5.8650 C   0  0  1  0  0  0  0  0  0  0  0  0
   24.2890   49.1600    7.0860 C   0  0  0  0  0  0  0  0  0  0  0  0
   25.2810   48.1280    7.5580 C   0  0  0  0  0  0  0  0  0  0  0  0
   23.7070   50.5160    5.0320 C   0  0  0  0  0  0  0  0  0  0  0  0
   22.3580   50.3940    5.6250 C   0  0  0  0  0  0  0  0  0  0  0  0
   21.4930   49.2830    5.3880 N   0  0  0  0  0  0  0  0  0  0  0  0
   21.7370   48.5400    4.7340 H   0  0  0  0  0  0  0  0  0  0  0  0
   21.8980   51.2920    6.3920 O   0  0  0  0  0  0  0  0  0  0  0  0
   20.2290   49.2720    6.1440 C   0  0  0  0  0  0  0  0  0  0  0  0
   20.4030   48.2360    7.2360 C   0  0  0  0  0  0  0  0  0  0  0  0
   31.7800   43.2930    8.7130 O   0  0  0  0  0  0  0  0  0  0  0  0
   32.4880   43.1400    9.9400 C   0  0  0  0  0  0  0  0  0  0  0  0
   31.5990   45.3017    7.0582 H   0  0  0  0  0  0  0  0  0  0  0  0
   30.1093   44.1139   10.5011 H   0  0  0  0  0  0  0  0  0  0  0  0
   27.8511   44.9268   10.0592 H   0  0  0  0  0  0  0  0  0  0  0  0
   31.7608   49.1143    7.3707 H   0  0  0  0  0  0  0  0  0  0  0  0
   34.0624   49.5624    7.8621 H   0  0  0  0  0  0  0  0  0  0  0  0
   35.2690   46.7017    5.1230 H   0  0  0  0  0  0  0  0  0  0  0  0
   32.9988   46.2158    4.6036 H   0  0  0  0  0  0  0  0  0  0  0  0
   37.6256   46.9133    6.5948 H   0  0  0  0  0  0  0  0  0  0  0  0
   36.9433   47.5025    5.1102 H   0  0  0  0  0  0  0  0  0  0  0  0
   38.8942   48.6364    4.9563 H   0  0  0  0  0  0  0  0  0  0  0  0
   39.1759   48.5260    6.7009 H   0  0  0  0  0  0  0  0  0  0  0  0
   37.8107   50.3730    4.0599 H   0  0  0  0  0  0  0  0  0  0  0  0
   37.2895   51.7178    5.0462 H   0  0  0  0  0  0  0  0  0  0  0  0
   36.3349   50.2555    4.9879 H   0  0  0  0  0  0  0  0  0  0  0  0
   37.0417   51.3775    7.3131 H   0  0  0  0  0  0  0  0  0  0  0  0
   38.3427   50.4201    8.0695 H   0  0  0  0  0  0  0  0  0  0  0  0
   36.9286   48.9137    8.7337 H   0  0  0  0  0  0  0  0  0  0  0  0
   35.6238   49.9197    8.1615 H   0  0  0  0  0  0  0  0  0  0  0  0
   26.2573   50.6981    8.1078 H   0  0  0  0  0  0  0  0  0  0  0  0
   27.7731   50.5236    7.3463 H   0  0  0  0  0  0  0  0  0  0  0  0
   25.9699   51.5711    5.8466 H   0  0  0  0  0  0  0  0  0  0  0  0
   26.6835   50.1156    5.1625 H   0  0  0  0  0  0  0  0  0  0  0  0
   24.9626   49.0863    5.1899 H   0  0  0  0  0  0  0  0  0  0  0  0
   23.3636   48.6689    6.8683 H   0  0  0  0  0  0  0  0  0  0  0  0
   24.1834   49.8832    7.8675 H   0  0  0  0  0  0  0  0  0  0  0  0
   25.2191   47.2486    6.9515 H   0  0  0  0  0  0  0  0  0  0  0  0
   25.0871   47.8322    8.5679 H   0  0  0  0  0  0  0  0  0  0  0  0
   23.9411   51.5540    4.9196 H   0  0  0  0  0  0  0  0  0  0  0  0
   23.6964   50.0138    4.0872 H   0  0  0  0  0  0  0  0  0  0  0  0
   19.4152   49.0035    5.5033 H   0  0  0  0  0  0  0  0  0  0  0  0
   20.0080   50.2365    6.5511 H   0  0  0  0  0  0  0  0  0  0  0  0
   20.6223   47.2862    6.7948 H   0  0  0  0  0  0  0  0  0  0  0  0
   19.5008   48.1644    7.8068 H   0  0  0  0  0  0  0  0  0  0  0  0
   21.2088   48.5259    7.8775 H   0  0  0  0  0  0  0  0  0  0  0  0
   33.2365   42.3836    9.8280 H   0  0  0  0  0  0  0  0  0  0  0  0
   31.8051   42.8543   10.7126 H   0  0  0  0  0  0  0  0  0  0  0  0
   32.9541   44.0672   10.2008 H   0  0  0  0  0  0  0  0  0  0  0  0
  1  2  1  6  0  0  0
  1 11  1  0  0  0  0
  2  4  1  0  0  0  0
  3  2  1  0  0  0  0
  4  5  2  0  0  0  0
  5  6  1  0  0  0  0
  5 10  1  0  0  0  0
  6  7  2  0  0  0  0
  6 43  1  0  0  0  0
  7 41  1  0  0  0  0
  7  8  1  0  0  0  0
  8 44  1  0  0  0  0
  9  8  1  0  0  0  0
  9 45  1  0  0  0  0
 10  9  2  0  0  0  0
 11 10  1  0  0  0  0
 11 12  1  0  0  0  0
 13 15  1  0  0  0  0
 13  4  1  0  0  0  0
 14 13  1  0  0  0  0
 15 16  2  0  0  0  0
 16 17  1  0  0  0  0
 16 46  1  0  0  0  0
 17 47  1  0  0  0  0
 18 21  1  0  0  0  0
 18 17  2  0  0  0  0
 19 18  1  0  0  0  0
 19 48  1  0  0  0  0
 20 19  2  0  0  0  0
 20 15  1  0  0  0  0
 20 49  1  0  0  0  0
 21 27  1  0  0  0  0
 22 21  1  0  0  0  0
 22 50  1  0  0  0  0
 22 51  1  0  0  0  0
 23 22  1  0  0  0  0
 23 24  1  0  0  0  0
 23 52  1  0  0  0  0
 23 53  1  0  0  0  0
 24 26  1  0  0  0  0
 25 24  1  0  0  0  0
 25 54  1  0  0  0  0
 25 55  1  0  0  0  0
 25 56  1  0  0  0  0
 26 27  1  0  0  0  0
 26 57  1  0  0  0  0
 26 58  1  0  0  0  0
 27 59  1  0  0  0  0
 27 60  1  0  0  0  0
 28 29  1  1  0  0  0
 28  1  1  0  0  0  0
 28 33  1  0  0  0  0
 29 61  1  0  0  0  0
 29 62  1  0  0  0  0
 30 29  1  0  0  0  0
 30 63  1  0  0  0  0
 30 64  1  0  0  0  0
 31 30  1  0  0  0  0
 31 32  1  0  0  0  0
 31 65  1  6  0  0  0
 32 33  1  0  0  0  0
 32 66  1  0  0  0  0
 32 67  1  0  0  0  0
 33 68  1  0  0  0  0
 33 69  1  0  0  0  0
 34 35  1  0  0  0  0
 34 31  1  0  0  0  0
 34 70  1  0  0  0  0
 34 71  1  0  0  0  0
 35 38  2  0  0  0  0
 36 35  1  0  0  0  0
 36 39  1  0  0  0  0
 37 36  1  0  0  0  0
 39 40  1  0  0  0  0
 39 72  1  0  0  0  0
 39 73  1  0  0  0  0
 40 74  1  0  0  0  0
 40 75  1  0  0  0  0
 40 76  1  0  0  0  0
 41 42  1  0  0  0  0
 42 77  1  0  0  0  0
 42 78  1  0  0  0  0
 42 79  1  0  0  0  0
M  END
>  <REMARK>
 VINA RESULT:      -8.0      3.020      4.316
  8 active torsions:
  status: ('A' for Active; 'I' for Inactive)
    1  A    between atoms: C_2  and  N_3 
       I    between atoms: N_3  and  C_5 
    2  A    between atoms: C_5  and  C_7 
    3  A    between atoms: C_7  and  C_8 
    4  A    between atoms: N_11  and  C_12 
    5  A    between atoms: C_15  and  N_16 
    6  A    between atoms: N_16  and  C_18 
    7  A    between atoms: C_21  and  N_22 
    8  A    between atoms: C_33  and  O_34 

>  <TORSDO>
F 8

$$$$
resistance_project/docking/5319283d3047ac55/Q9UM73_L1196M/docked/molecule_0003_out.pdbqt
 OpenBabel09232609183D

 79 83  0  0  1  0  0  0  0  0999 V2000
   28.1730   50.2490    6.3560 C   0  0  2  0  0  0  0  0  0  0  0  0
   28.3190   49.1670    7.1010 N   0  0  0  0  0  0  0  0  0  0  0  0
   29.2420   48.8740    7.4210 H   0  0  0  0  0  0  0  0  0  0  0  0
   27.2000   48.4450    7.4300 C   0  0  1  0  0  0  0  0  0  0  0  0
   25.9720   48.8920    6.9610 C   0  0  0  0  0  0  0  0  0  0  0  0
   24.8150   48.1980    7.2410 C   0  0  0  0  0  0  0  0  0  0  0  0
   23.6040   48.6140    6.7700 C   0  0  0  0  0  0  0  0  0  0  0  0
   23.4460   49.7480    5.9860 C   0  0  0  0  0  0  0  0  0  0  0  0
   24.6170   50.4650    5.6930 C   0  0  0  0  0  0  0  0  0  0  0  0
   25.8360   50.0220    6.1840 C   0  0  0  0  0  0  0  0  0  0  0  0
   26.9650   50.6920    5.8920 N   0  0  0  0  0  0  0  0  0  0  0  0
   26.9210   51.5350    5.3200 H   0  0  0  0  0  0  0  0  0  0  0  0
   27.4050   47.3100    8.2010 N   0  0  0  0  0  0  0  0  0  0  0  0
   26.6320   47.0490    8.8150 H   0  0  0  0  0  0  0  0  0  0  0  0
   28.5130   46.4830    8.2530 C   0  0  0  0  0  0  0  0  0  0  0  0
   29.4890   46.6160    7.2830 C   0  0  0  0  0  0  0  0  0  0  0  0
   30.6300   45.8320    7.3470 C   0  0  0  0  0  0  0  0  0  0  0  0
   30.8520   44.9050    8.3450 C   0  0  0  0  0  0  0  0  0  0  0  0
   29.8670   44.7870    9.3020 C   0  0  0  0  0  0  0  0  0  0  0  0
   28.7250   45.5440    9.2760 C   0  0  0  0  0  0  0  0  0  0  0  0
   32.0390   44.0910    8.3850 N   0  0  0  0  0  0  0  0  0  0  0  0
   33.0730   44.2750    7.3670 C   0  0  0  0  0  0  0  0  0  0  0  0
   34.4190   44.0090    8.0120 C   0  0  0  0  0  0  0  0  0  0  0  0
   34.3840   44.1500    9.4330 N   0  0  0  0  0  0  0  0  0  0  0  0
   34.2960   45.5270    9.8810 C   0  0  0  0  0  0  0  0  0  0  0  0
   33.4970   43.2510   10.0970 C   0  0  0  0  0  0  0  0  0  0  0  0
   32.1460   43.1180    9.4470 C   0  0  0  0  0  0  0  0  0  0  0  0
   29.2940   51.0590    5.9570 N   0  0  2  0  0  0  0  0  0  0  0  0
   30.4190   51.2960    6.8530 C   0  0  0  0  0  0  0  0  0  0  0  0
   31.6050   50.6070    6.1300 C   0  0  0  0  0  0  0  0  0  0  0  0
   31.6810   51.0240    4.7170 C   0  0  1  0  0  0  0  0  0  0  0  0
   30.6850   52.0470    4.2890 C   0  0  0  0  0  0  0  0  0  0  0  0
   29.2650   51.6540    4.6040 C   0  0  0  0  0  0  0  0  0  0  0  0
   32.9870   51.0270    4.0440 C   0  0  0  0  0  0  0  0  0  0  0  0
   33.6440   49.7030    4.0900 C   0  0  0  0  0  0  0  0  0  0  0  0
   33.1300   48.5470    3.4270 N   0  0  0  0  0  0  0  0  0  0  0  0
   32.2360   48.5600    2.9380 H   0  0  0  0  0  0  0  0  0  0  0  0
   34.7210   49.5310    4.7360 O   0  0  0  0  0  0  0  0  0  0  0  0
   33.9680   47.3380    3.4900 C   0  0  0  0  0  0  0  0  0  0  0  0
   33.1200   46.2760    4.1600 C   0  0  0  0  0  0  0  0  0  0  0  0
   22.4380   47.9110    7.0520 O   0  0  0  0  0  0  0  0  0  0  0  0
   21.2090   48.6110    7.2270 C   0  0  0  0  0  0  0  0  0  0  0  0
   24.8656   47.3450    7.8196 H   0  0  0  0  0  0  0  0  0  0  0  0
   22.5214   50.0470    5.6385 H   0  0  0  0  0  0  0  0  0  0  0  0
   24.5708   51.3184    5.1145 H   0  0  0  0  0  0  0  0  0  0  0  0
   29.3686   47.2953    6.5155 H   0  0  0  0  0  0  0  0  0  0  0  0
   31.3473   45.9468    6.6140 H   0  0  0  0  0  0  0  0  0  0  0  0
   29.9941   44.1042   10.0653 H   0  0  0  0  0  0  0  0  0  0  0  0
   28.0144   45.4232   10.0146 H   0  0  0  0  0  0  0  0  0  0  0  0
   32.9149   43.5893    6.5609 H   0  0  0  0  0  0  0  0  0  0  0  0
   33.0380   45.2711    6.9778 H   0  0  0  0  0  0  0  0  0  0  0  0
   35.1317   44.7020    7.6162 H   0  0  0  0  0  0  0  0  0  0  0  0
   34.6893   42.9971    7.7930 H   0  0  0  0  0  0  0  0  0  0  0  0
   34.9923   46.1259    9.3319 H   0  0  0  0  0  0  0  0  0  0  0  0
   34.5269   45.5780   10.9245 H   0  0  0  0  0  0  0  0  0  0  0  0
   33.3039   45.8927    9.7169 H   0  0  0  0  0  0  0  0  0  0  0  0
   33.3539   43.6004   11.0982 H   0  0  0  0  0  0  0  0  0  0  0  0
   33.9533   42.2841   10.0542 H   0  0  0  0  0  0  0  0  0  0  0  0
   32.0370   42.1329    9.0437 H   0  0  0  0  0  0  0  0  0  0  0  0
   31.3772   43.2869   10.1718 H   0  0  0  0  0  0  0  0  0  0  0  0
   30.2452   50.8530    7.8114 H   0  0  0  0  0  0  0  0  0  0  0  0
   30.5913   52.3351    7.0416 H   0  0  0  0  0  0  0  0  0  0  0  0
   32.5168   50.8736    6.6224 H   0  0  0  0  0  0  0  0  0  0  0  0
   31.4545   49.5482    6.1640 H   0  0  0  0  0  0  0  0  0  0  0  0
   31.3103   50.1350    4.2511 H   0  0  0  0  0  0  0  0  0  0  0  0
   30.9036   52.9665    4.7906 H   0  0  0  0  0  0  0  0  0  0  0  0
   30.7621   52.1437    3.2262 H   0  0  0  0  0  0  0  0  0  0  0  0
   28.9110   50.9386    3.8914 H   0  0  0  0  0  0  0  0  0  0  0  0
   28.6079   52.4974    4.5622 H   0  0  0  0  0  0  0  0  0  0  0  0
   32.8463   51.3062    3.0207 H   0  0  0  0  0  0  0  0  0  0  0  0
   33.6177   51.7238    4.5555 H   0  0  0  0  0  0  0  0  0  0  0  0
   34.8502   47.5268    4.0653 H   0  0  0  0  0  0  0  0  0  0  0  0
   34.2844   47.0295    2.5155 H   0  0  0  0  0  0  0  0  0  0  0  0
   32.8219   46.6168    5.1295 H   0  0  0  0  0  0  0  0  0  0  0  0
   33.6886   45.3749    4.2579 H   0  0  0  0  0  0  0  0  0  0  0  0
   32.2507   46.0864    3.5657 H   0  0  0  0  0  0  0  0  0  0  0  0
   20.4267   47.9115    7.4355 H   0  0  0  0  0  0  0  0  0  0  0  0
   20.9757   49.1510    6.3332 H   0  0  0  0  0  0  0  0  0  0  0  0
   21.3019   49.2961    8.0436 H   0  0  0  0  0  0  0  0  0  0  0  0
  1 11  1  6  0  0  0
  1  2  1  0  0  0  0
  2  3  1  0  0  0  0
  2  4  1  0  0  0  0
  4 13  1  6  0  0  0
  5  6  1  0  0  0  0
  5  4  1  0  0  0  0
  6 43  1  0  0  0  0
  7 41  1  0  0  0  0
  7  6  2  0  0  0  0
  8  7  1  0  0  0  0
  8 44  1  0  0  0  0
  9  8  2  0  0  0  0
  9 10  1  0  0  0  0
  9 45  1  0  0  0  0
 10  5  2  0  0  0  0
 11 10  1  0  0  0  0
 12 11  1  0  0  0  0
 13 15  1  0  0  0  0
 13 14  1  0  0  0  0
 15 20  2  0  0  0  0
 16 17  2  0  0  0  0
 16 15  1  0  0  0  0
 16 46  1  0  0  0  0
 17 18  1  0  0  0  0
 17 47  1  0  0  0  0
 18 21  1  0  0  0  0
 18 19  2  0  0  0  0
 19 48  1  0  0  0  0
 20 19  1  0  0  0  0
 20 49  1  0  0  0  0
 21 27  1  0  0  0  0
 22 23  1  0  0  0  0
 22 21  1  0  0  0  0
 22 50  1  0  0  0  0
 22 51  1  0  0  0  0
 23 24  1  0  0  0  0
 23 52  1  0  0  0  0
 23 53  1  0  0  0  0
 24 25  1  0  0  0  0
 24 26  1  0  0  0  0
 25 54  1  0  0  0  0
 25 55  1  0  0  0  0
 25 56  1  0  0  0  0
 26 57  1  0  0  0  0
 26 58  1  0  0  0  0
 27 26  1  0  0  0  0
 27 59  1  0  0  0  0
 27 60  1  0  0  0  0
 28 33  1  1  0  0  0
 28  1  1  0  0  0  0
 28 29  1  0  0  0  0
 29 61  1  0  0  0  0
 29 62  1  0  0  0  0
 30 29  1  0  0  0  0
 30 63  1  0  0  0  0
 30 64  1  0  0  0  0
 31 30  1  0  0  0  0
 31 65  1  6  0  0  0
 32 33  1  0  0  0  0
 32 31  1  0  0  0  0
 32 66  1  0  0  0  0
 32 67  1  0  0  0  0
 33 68  1  0  0  0  0
 33 69  1  0  0  0  0
 34 35  1  0  0  0  0
 34 31  1  0  0  0  0
 34 70  1  0  0  0  0
 34 71  1  0  0  0  0
 35 38  2  0  0  0  0
 36 39  1  0  0  0  0
 36 35  1  0  0  0  0
 37 36  1  0  0  0  0
 39 40  1  0  0  0  0
 39 72  1  0  0  0  0
 39 73  1  0  0  0  0
 40 74  1  0  0  0  0
 40 75  1  0  0  0  0
 40 76  1  0  0  0  0
 41 42  1  0  0  0  0
 42 77  1  0  0  0  0
 42 78  1  0  0  0  0
 42 79  1  0  0  0  0
M  END
>  <REMARK>
 VINA RESULT:      -8.0      3.622      6.412
  8 active torsions:
  status: ('A' for Active; 'I' for Inactive)
    1  A    between atoms: C_2  and  N_3 
       I    between atoms: N_3  and  C_5 
    2  A    between atoms: C_5  and  C_7 
    3  A    between atoms: C_7  and  C_8 
    4  A    between atoms: N_11  and  C_12 
    5  A    between atoms: C_15  and  N_16 
    6  A    between atoms: N_16  and  C_18 
    7  A    between atoms: C_21  and  N_22 
    8  A    between atoms: C_33  and  O_34 

>  <TORSDO>
F 8

$$$$
resistance_project/docking/5319283d3047ac55/Q9UM73_L1196M/docked/molecule_0003_out.pdbqt
 OpenBabel09232609183D

 79 83  0  0  1  0  0  0  0  0999 V2000
   28.4990   48.7100    6.4610 C   0  0  2  0  0  0  0  0  0  0  0  0
   29.6440   48.4350    5.8590 N   0  0  0  0  0  0  0  0  0  0  0  0
   29.9960   49.0290    5.1080 H   0  0  0  0  0  0  0  0  0  0  0  0
   30.3480   47.3320    6.2690 C   0  0  0  0  0  0  0  0  0  0  0  0
   29.8160   46.5600    7.2950 C   0  0  0  0  0  0  0  0  0  0  0  0
   30.4670   45.4280    7.7360 C   0  0  0  0  0  0  0  0  0  0  0  0
   29.9460   44.6500    8.7270 C   0  0  0  0  0  0  0  0  0  0  0  0
   28.7440   44.9330    9.3600 C   0  0  0  0  0  0  0  0  0  0  0  0
   28.0710   46.0840    8.9210 C   0  0  0  0  0  0  0  0  0  0  0  0
   28.6200   46.8590    7.9110 C   0  0  0  0  0  0  0  0  0  0  0  0
   27.9730   47.9530    7.4700 N   0  0  0  0  0  0  0  0  0  0  0  0
   27.0830   48.2190    7.8910 H   0  0  0  0  0  0  0  0  0  0  0  0
   31.5360   47.0760    5.6010 N   0  0  0  0  0  0  0  0  0  0  0  0
   31.4940   46.3440    4.8910 H   0  0  0  0  0  0  0  0  0  0  0  0
   32.7720   47.6770    5.7650 C   0  0  0  0  0  0  0  0  0  0  0  0
   33.1980   47.9860    7.0430 C   0  0  0  0  0  0  0  0  0  0  0  0
   34.4530   48.5420    7.2320 C   0  0  0  0  0  0  0  0  0  0  0  0
   35.3220   48.8100    6.1930 C   0  0  0  0  0  0  0  0  0  0  0  0
   34.8790   48.4950    4.9260 C   0  0  0  0  0  0  0  0  0  0  0  0
   33.6460   47.9440    4.6970 C   0  0  0  0  0  0  0  0  0  0  0  0
   36.6170   49.4010    6.4100 N   0  0  0  0  0  0  0  0  0  0  0  0
   37.5370   49.5530    5.2820 C   0  0  0  0  0  0  0  0  0  0  0  0
   38.3430   50.8170    5.5030 C   0  0  0  0  0  0  0  0  0  0  0  0
   37.7010   51.7310    6.3940 N   0  0  0  0  0  0  0  0  0  0  0  0
   36.5580   52.4070    5.8120 C   0  0  0  0  0  0  0  0  0  0  0  0
   37.4860   51.2230    7.7100 C   0  0  0  0  0  0  0  0  0  0  0  0
   36.9450   49.8190    7.7530 C   0  0  0  0  0  0  0  0  0  0  0  0
   27.6930   49.8430    6.0870 N   0  0  2  0  0  0  0  0  0  0  0  0
   26.7430   50.4400    7.0160 C   0  0  0  0  0  0  0  0  0  0  0  0
   27.3150   51.8610    7.2500 C   0  0  0  0  0  0  0  0  0  0  0  0
   27.6220   52.5290    5.9710 C   0  0  1  0  0  0  0  0  0  0  0  0
   27.2660   51.7660    4.7410 C   0  0  0  0  0  0  0  0  0  0  0  0
   27.8530   50.3780    4.7180 C   0  0  0  0  0  0  0  0  0  0  0  0
   27.5620   53.9960    5.8990 C   0  0  0  0  0  0  0  0  0  0  0  0
   28.3180   54.6410    6.9930 C   0  0  0  0  0  0  0  0  0  0  0  0
   27.7030   55.4040    8.0320 N   0  0  0  0  0  0  0  0  0  0  0  0
   26.7030   55.6020    8.0340 H   0  0  0  0  0  0  0  0  0  0  0  0
   29.5800   54.5420    7.0600 O   0  0  0  0  0  0  0  0  0  0  0  0
   28.5950   55.8850    9.1000 C   0  0  0  0  0  0  0  0  0  0  0  0
   27.8210   56.9540    9.8420 C   0  0  0  0  0  0  0  0  0  0  0  0
   30.6030   43.5060    9.1700 O   0  0  0  0  0  0  0  0  0  0  0  0
   32.0100   43.5340    9.3900 C   0  0  0  0  0  0  0  0  0  0  0  0
   31.3677   45.1638    7.3071 H   0  0  0  0  0  0  0  0  0  0  0  0
   28.9442   45.0497   10.4046 H   0  0  0  0  0  0  0  0  0  0  0  0
   27.1709   46.3523    9.3485 H   0  0  0  0  0  0  0  0  0  0  0  0
   32.5844   47.8035    7.8525 H   0  0  0  0  0  0  0  0  0  0  0  0
   34.7521   48.7662    8.1939 H   0  0  0  0  0  0  0  0  0  0  0  0
   35.4983   48.6809    4.1217 H   0  0  0  0  0  0  0  0  0  0  0  0
   33.3561   47.7229    3.7316 H   0  0  0  0  0  0  0  0  0  0  0  0
   38.1922   48.7086    5.2314 H   0  0  0  0  0  0  0  0  0  0  0  0
   36.9920   49.6152    4.3633 H   0  0  0  0  0  0  0  0  0  0  0  0
   38.4856   51.3015    4.5597 H   0  0  0  0  0  0  0  0  0  0  0  0
   39.2744   50.5332    5.9466 H   0  0  0  0  0  0  0  0  0  0  0  0
   36.8094   52.7525    4.8310 H   0  0  0  0  0  0  0  0  0  0  0  0
   36.2866   53.2409    6.4251 H   0  0  0  0  0  0  0  0  0  0  0  0
   35.7345   51.7266    5.7504 H   0  0  0  0  0  0  0  0  0  0  0  0
   36.7897   51.8655    8.2073 H   0  0  0  0  0  0  0  0  0  0  0  0
   38.4431   51.1966    8.1877 H   0  0  0  0  0  0  0  0  0  0  0  0
   37.6835   49.1622    8.1630 H   0  0  0  0  0  0  0  0  0  0  0  0
   36.0685   49.7876    8.3660 H   0  0  0  0  0  0  0  0  0  0  0  0
   26.7037   49.8874    7.9314 H   0  0  0  0  0  0  0  0  0  0  0  0
   25.7410   50.4494    6.6407 H   0  0  0  0  0  0  0  0  0  0  0  0
   26.5941   52.4440    7.7842 H   0  0  0  0  0  0  0  0  0  0  0  0
   28.2208   51.7735    7.8129 H   0  0  0  0  0  0  0  0  0  0  0  0
   28.6894   52.4562    5.9867 H   0  0  0  0  0  0  0  0  0  0  0  0
   26.2004   51.6864    4.6857 H   0  0  0  0  0  0  0  0  0  0  0  0
   27.6709   52.2984    3.9059 H   0  0  0  0  0  0  0  0  0  0  0  0
   28.8890   50.4172    4.4532 H   0  0  0  0  0  0  0  0  0  0  0  0
   27.3634   49.7582    3.9962 H   0  0  0  0  0  0  0  0  0  0  0  0
   26.5386   54.3023    5.9604 H   0  0  0  0  0  0  0  0  0  0  0  0
   28.0043   54.2973    4.9725 H   0  0  0  0  0  0  0  0  0  0  0  0
   29.4887   56.2972    8.6802 H   0  0  0  0  0  0  0  0  0  0  0  0
   28.8882   55.0896    9.7530 H   0  0  0  0  0  0  0  0  0  0  0  0
   27.5444   57.7316    9.1610 H   0  0  0  0  0  0  0  0  0  0  0  0
   28.4322   57.3618   10.6198 H   0  0  0  0  0  0  0  0  0  0  0  0
   26.9394   56.5241   10.2696 H   0  0  0  0  0  0  0  0  0  0  0  0
   32.3377   42.5724    9.7259 H   0  0  0  0  0  0  0  0  0  0  0  0
   32.2403   44.2689   10.1329 H   0  0  0  0  0  0  0  0  0  0  0  0
   32.5090   43.7818    8.4765 H   0  0  0  0  0  0  0  0  0  0  0  0
  1  2  1  6  0  0  0
  1 11  1  0  0  0  0
  2  4  1  0  0  0  0
  3  2  1  0  0  0  0
  4  5  2  0  0  0  0
  5  6  1  0  0  0  0
  5 10  1  0  0  0  0
  6  7  2  0  0  0  0
  6 43  1  0  0  0  0
  7 41  1  0  0  0  0
  7  8  1  0  0  0  0
  8 44  1  0  0  0  0
  9  8  1  0  0  0  0
  9 45  1  0  0  0  0
 10  9  2  0  0  0  0
 11 12  1  0  0  0  0
 11 10  1  0  0  0  0
 13 15  1  0  0  0  0
 13  4  1  0  0  0  0
 14 13  1  0  0  0  0
 15 16  2  0  0  0  0
 16 17  1  0  0  0  0
 16 46  1  0  0  0  0
 17 47  1  0  0  0  0
 18 21  1  0  0  0  0
 18 17  2  0  0  0  0
 19 18  1  0  0  0  0
 19 48  1  0  0  0  0
 20 19  2  0  0  0  0
 20 15  1  0  0  0  0
 20 49  1  0  0  0  0
 21 27  1  0  0  0  0
 22 23  1  0  0  0  0
 22 21  1  0  0  0  0
 22 50  1  0  0  0  0
 22 51  1  0  0  0  0
 23 24  1  0  0  0  0
 23 52  1  0  0  0  0
 23 53  1  0  0  0  0
 24 26  1  0  0  0  0
 25 24  1  0  0  0  0
 25 54  1  0  0  0  0
 25 55  1  0  0  0  0
 25 56  1  0  0  0  0
 26 27  1  0  0  0  0
 26 57  1  0  0  0  0
 26 58  1  0  0  0  0
 27 59  1  0  0  0  0
 27 60  1  0  0  0  0
 28 33  1  6  0  0  0
 28  1  1  0  0  0  0
 28 29  1  0  0  0  0
 29 30  1  0  0  0  0
 29 61  1  0  0  0  0
 29 62  1  0  0  0  0
 30 63  1  0  0  0  0
 30 64  1  0  0  0  0
 31 30  1  0  0  0  0
 31 65  1  6  0  0  0
 32 31  1  0  0  0  0
 32 66  1  0  0  0  0
 32 67  1  0  0  0  0
 33 32  1  0  0  0  0
 33 68  1  0  0  0  0
 33 69  1  0  0  0  0
 34 31  1  0  0  0  0
 34 35  1  0  0  0  0
 34 70  1  0  0  0  0
 34 71  1  0  0  0  0
 35 38  2  0  0  0  0
 35 36  1  0  0  0  0
 36 37  1  0  0  0  0
 36 39  1  0  0  0  0
 39 40  1  0  0  0  0
 39 72  1  0  0  0  0
 39 73  1  0  0  0  0
 40 74  1  0  0  0  0
 40 75  1  0  0  0  0
 40 76  1  0  0  0  0
 41 42  1  0  0  0  0
 42 77  1  0  0  0  0
 42 78  1  0  0  0  0
 42 79  1  0  0  0  0
M  END
>  <REMARK>
 VINA RESULT:      -8.0      1.749      2.388
  8 active torsions:
  status: ('A' for Active; 'I' for Inactive)
    1  A    between atoms: C_2  and  N_3 
       I    between atoms: N_3  and  C_5 
    2  A    between atoms: C_5  and  C_7 
    3  A    between atoms: C_7  and  C_8 
    4  A    between atoms: N_11  and  C_12 
    5  A    between atoms: C_15  and  N_16 
    6  A    between atoms: N_16  and  C_18 
    7  A    between atoms: C_21  and  N_22 
    8  A    between atoms: C_33  and  O_34 

>  <TORSDO>
F 8

$$$$
resistance_project/docking/5319283d3047ac55/Q9UM73_L1196M/docked/molecule_0003_out.pdbqt
 OpenBabel09232609183D

 79 83  0  0  1  0  0  0  0  0999 V2000
   27.5840   48.1080    7.3770 C   0  0  2  0  0  0  0  0  0  0  0  0
   28.6730   48.1830    6.6300 N   0  0  0  0  0  0  0  0  0  0  0  0
   28.7770   48.9190    5.9320 H   0  0  0  0  0  0  0  0  0  0  0  0
   29.6570   47.2470    6.8170 C   0  0  0  0  0  0  0  0  0  0  0  0
   29.4550   46.2670    7.7810 C   0  0  0  0  0  0  0  0  0  0  0  0
   30.3980   45.2880    8.0000 C   0  0  0  0  0  0  0  0  0  0  0  0
   30.2040   44.3080    8.9280 C   0  0  0  0  0  0  0  0  0  0  0  0
   29.0620   44.2230    9.7130 C   0  0  0  0  0  0  0  0  0  0  0  0
   28.0920   45.2160    9.5000 C   0  0  0  0  0  0  0  0  0  0  0  0
   28.3130   46.2020    8.5500 C   0  0  0  0  0  0  0  0  0  0  0  0
   27.3810   47.1450    8.3260 N   0  0  0  0  0  0  0  0  0  0  0  0
   26.5170   47.1430    8.8670 H   0  0  0  0  0  0  0  0  0  0  0  0
   30.7750   47.3580    6.0020 N   0  0  0  0  0  0  0  0  0  0  0  0
   30.5880   47.5960    5.0280 H   0  0  0  0  0  0  0  0  0  0  0  0
   32.1090   47.1900    6.3300 C   0  0  0  0  0  0  0  0  0  0  0  0
   32.6750   48.0340    7.2680 C   0  0  0  0  0  0  0  0  0  0  0  0
   33.9950   47.8490    7.6470 C   0  0  0  0  0  0  0  0  0  0  0  0
   34.7950   46.8500    7.1310 C   0  0  0  0  0  0  0  0  0  0  0  0
   34.2110   46.0190    6.1970 C   0  0  0  0  0  0  0  0  0  0  0  0
   32.9100   46.1670    5.7960 C   0  0  0  0  0  0  0  0  0  0  0  0
   36.1680   46.6840    7.5280 N   0  0  0  0  0  0  0  0  0  0  0  0
   36.4740   46.1480    8.8550 C   0  0  0  0  0  0  0  0  0  0  0  0
   37.7450   45.3290    8.7480 C   0  0  0  0  0  0  0  0  0  0  0  0
   38.0060   44.8910    7.4140 N   0  0  0  0  0  0  0  0  0  0  0  0
   37.1280   43.8270    6.9660 C   0  0  0  0  0  0  0  0  0  0  0  0
   38.1930   45.9450    6.4700 C   0  0  0  0  0  0  0  0  0  0  0  0
   37.1890   47.0610    6.5790 C   0  0  0  0  0  0  0  0  0  0  0  0
   26.4980   49.0440    7.2400 N   0  0  2  0  0  0  0  0  0  0  0  0
   26.7390   50.4750    7.1050 C   0  0  0  0  0  0  0  0  0  0  0  0
   26.2170   50.7940    5.6810 C   0  0  0  0  0  0  0  0  0  0  0  0
   24.8620   50.2480    5.4770 C   0  0  1  0  0  0  0  0  0  0  0  0
   24.2480   49.5820    6.6610 C   0  0  0  0  0  0  0  0  0  0  0  0
   25.1220   48.5050    7.2500 C   0  0  0  0  0  0  0  0  0  0  0  0
   23.9580   50.9170    4.5310 C   0  0  0  0  0  0  0  0  0  0  0  0
   24.6350   51.2700    3.2650 C   0  0  0  0  0  0  0  0  0  0  0  0
   25.0320   50.3050    2.2900 N   0  0  0  0  0  0  0  0  0  0  0  0
   24.9300   49.3030    2.4510 H   0  0  0  0  0  0  0  0  0  0  0  0
   24.8980   52.4760    2.9800 O   0  0  0  0  0  0  0  0  0  0  0  0
   25.5960   50.8400    1.0400 C   0  0  0  0  0  0  0  0  0  0  0  0
   24.5590   50.5780   -0.0330 C   0  0  0  0  0  0  0  0  0  0  0  0
   31.1570   43.3180    9.1460 O   0  0  0  0  0  0  0  0  0  0  0  0
   32.2750   43.2010    8.2710 C   0  0  0  0  0  0  0  0  0  0  0  0
   31.2710   45.2961    7.4496 H   0  0  0  0  0  0  0  0  0  0  0  0
   29.3648   44.2759   10.7379 H   0  0  0  0  0  0  0  0  0  0  0  0
   27.2178   45.2120   10.0485 H   0  0  0  0  0  0  0  0  0  0  0  0
   32.1177   48.7969    7.6832 H   0  0  0  0  0  0  0  0  0  0  0  0
   34.3991   48.4889    8.3486 H   0  0  0  0  0  0  0  0  0  0  0  0
   34.7749   45.2587    5.7859 H   0  0  0  0  0  0  0  0  0  0  0  0
   32.5144   45.5211    5.0951 H   0  0  0  0  0  0  0  0  0  0  0  0
   35.6694   45.5275    9.1903 H   0  0  0  0  0  0  0  0  0  0  0  0
   36.6036   46.9451    9.5569 H   0  0  0  0  0  0  0  0  0  0  0  0
   38.5675   45.9281    9.0790 H   0  0  0  0  0  0  0  0  0  0  0  0
   37.6210   44.4577    9.3565 H   0  0  0  0  0  0  0  0  0  0  0  0
   37.3823   43.5531    5.9634 H   0  0  0  0  0  0  0  0  0  0  0  0
   36.1133   44.1651    6.9968 H   0  0  0  0  0  0  0  0  0  0  0  0
   37.2406   42.9779    7.6072 H   0  0  0  0  0  0  0  0  0  0  0  0
   39.1693   46.3573    6.6174 H   0  0  0  0  0  0  0  0  0  0  0  0
   38.0657   45.5127    5.4996 H   0  0  0  0  0  0  0  0  0  0  0  0
   36.7425   47.2365    5.6226 H   0  0  0  0  0  0  0  0  0  0  0  0
   37.6764   47.9548    6.9085 H   0  0  0  0  0  0  0  0  0  0  0  0
   26.1962   51.0262    7.8442 H   0  0  0  0  0  0  0  0  0  0  0  0
   27.7663   50.7406    7.2427 H   0  0  0  0  0  0  0  0  0  0  0  0
   26.1896   51.8554    5.5486 H   0  0  0  0  0  0  0  0  0  0  0  0
   26.8758   50.3428    4.9687 H   0  0  0  0  0  0  0  0  0  0  0  0
   25.0995   49.4184    4.8443 H   0  0  0  0  0  0  0  0  0  0  0  0
   23.3198   49.1420    6.3614 H   0  0  0  0  0  0  0  0  0  0  0  0
   24.1110   50.3301    7.4136 H   0  0  0  0  0  0  0  0  0  0  0  0
   25.0669   47.6161    6.6569 H   0  0  0  0  0  0  0  0  0  0  0  0
   24.8103   48.2462    8.2404 H   0  0  0  0  0  0  0  0  0  0  0  0
   23.1407   50.2616    4.3134 H   0  0  0  0  0  0  0  0  0  0  0  0
   23.6196   51.8243    4.9862 H   0  0  0  0  0  0  0  0  0  0  0  0
   25.7767   51.8905    1.1335 H   0  0  0  0  0  0  0  0  0  0  0  0
   26.5308   50.3767    0.8025 H   0  0  0  0  0  0  0  0  0  0  0  0
   23.6393   51.0542    0.2359 H   0  0  0  0  0  0  0  0  0  0  0  0
   24.4008   49.5239   -0.1264 H   0  0  0  0  0  0  0  0  0  0  0  0
   24.9045   50.9709   -0.9664 H   0  0  0  0  0  0  0  0  0  0  0  0
   32.8958   42.3908    8.5919 H   0  0  0  0  0  0  0  0  0  0  0  0
   32.8383   44.1106    8.2884 H   0  0  0  0  0  0  0  0  0  0  0  0
   31.9306   43.0138    7.2754 H   0  0  0  0  0  0  0  0  0  0  0  0
  1  2  1  6  0  0  0
  1 11  1  0  0  0  0
  2  4  1  0  0  0  0
  3  2  1  0  0  0  0
  4  5  2  0  0  0  0
  5  6  1  0  0  0  0
  5 10  1  0  0  0  0
  6  7  2  0  0  0  0
  6 43  1  0  0  0  0
  7 41  1  0  0  0  0
  7  8  1  0  0  0  0
  8 44  1  0  0  0  0
  9  8  1  0  0  0  0
  9 45  1  0  0  0  0
 10  9  2  0  0  0  0
 11 10  1  0  0  0  0
 11 12  1  0  0  0  0
 13 15  1  0  0  0  0
 13  4  1  0  0  0  0
 14 13  1  0  0  0  0
 15 16  2  0  0  0  0
 16 17  1  0  0  0  0
 16 46  1  0  0  0  0
 17 47  1  0  0  0  0
 18 21  1  0  0  0  0
 18 17  2  0  0  0  0
 19 18  1  0  0  0  0
 19 48  1  0  0  0  0
 20 19  2  0  0  0  0
 20 15  1  0  0  0  0
 20 49  1  0  0  0  0
 21 22  1  0  0  0  0
 22 50  1  0  0  0  0
 22 51  1  0  0  0  0
 23 22  1  0  0  0  0
 23 52  1  0  0  0  0
 23 53  1  0  0  0  0
 24 23  1  0  0  0  0
 25 24  1  0  0  0  0
 25 54  1  0  0  0  0
 25 55  1  0  0  0  0
 25 56  1  0  0  0  0
 26 27  1  0  0  0  0
 26 24  1  0  0  0  0
 26 57  1  0  0  0  0
 26 58  1  0  0  0  0
 27 21  1  0  0  0  0
 27 59  1  0  0  0  0
 27 60  1  0  0  0  0
 28 29  1  1  0  0  0
 28 33  1  0  0  0  0
 28  1  1  0  0  0  0
 29 61  1  0  0  0  0
 29 62  1  0  0  0  0
 30 29  1  0  0  0  0
 30 63  1  0  0  0  0
 30 64  1  0  0  0  0
 31 30  1  0  0  0  0
 31 32  1  0  0  0  0
 31 65  1  6  0  0  0
 32 33  1  0  0  0  0
 32 66  1  0  0  0  0
 32 67  1  0  0  0  0
 33 68  1  0  0  0  0
 33 69  1  0  0  0  0
 34 31  1  0  0  0  0
 34 70  1  0  0  0  0
 34 71  1  0  0  0  0
 35 34  1  0  0  0  0
 36 37  1  0  0  0  0
 36 35  1  0  0  0  0
 38 35  2  0  0  0  0
 39 36  1  0  0  0  0
 39 72  1  0  0  0  0
 39 73  1  0  0  0  0
 40 39  1  0  0  0  0
 40 74  1  0  0  0  0
 40 75  1  0  0  0  0
 40 76  1  0  0  0  0
 42 41  1  0  0  0  0
 42 77  1  0  0  0  0
 42 78  1  0  0  0  0
 42 79  1  0  0  0  0
M  END
>  <REMARK>
 VINA RESULT:      -7.9      2.536      3.719
  8 active torsions:
  status: ('A' for Active; 'I' for Inactive)
    1  A    between atoms: C_2  and  N_3 
       I    between atoms: N_3  and  C_5 
    2  A    between atoms: C_5  and  C_7 
    3  A    between atoms: C_7  and  C_8 
    4  A    between atoms: N_11  and  C_12 
    5  A    between atoms: C_15  and  N_16 
    6  A    between atoms: N_16  and  C_18 
    7  A    between atoms: C_21  and  N_22 
    8  A    between atoms: C_33  and  O_34 

>  <TORSDO>
F 8

$$$$
resistance_project/docking/5319283d3047ac55/Q9UM73_L1196M/docked/molecule_0003_out.pdbqt
 OpenBabel09232609183D

 79 83  0  0  1  0  0  0  0  0999 V2000
   32.1300   45.7820    7.9040 C   0  0  2  0  0  0  0  0  0  0  0  0
   32.0560   46.7500    7.0080 N   0  0  0  0  0  0  0  0  0  0  0  0
   32.8870   47.0640    6.5080 H   0  0  0  0  0  0  0  0  0  0  0  0
   30.8340   47.3240    6.7660 C   0  0  0  0  0  0  0  0  0  0  0  0
   29.7380   46.8550    7.4810 C   0  0  0  0  0  0  0  0  0  0  0  0
   28.4890   47.4050    7.2980 C   0  0  0  0  0  0  0  0  0  0  0  0
   27.4090   46.9690    8.0070 C   0  0  0  0  0  0  0  0  0  0  0  0
   27.4820   45.9540    8.9510 C   0  0  0  0  0  0  0  0  0  0  0  0
   28.7500   45.3840    9.1480 C   0  0  0  0  0  0  0  0  0  0  0  0
   29.8330   45.8450    8.4150 C   0  0  0  0  0  0  0  0  0  0  0  0
   31.0550   45.3180    8.6100 N   0  0  0  0  0  0  0  0  0  0  0  0
   31.1810   44.5680    9.2890 H   0  0  0  0  0  0  0  0  0  0  0  0
   30.8070   48.3440    5.8280 N   0  0  0  0  0  0  0  0  0  0  0  0
   31.1240   48.0910    4.8920 H   0  0  0  0  0  0  0  0  0  0  0  0
   30.4080   49.6600    5.9860 C   0  0  0  0  0  0  0  0  0  0  0  0
   29.2360   50.0780    5.3830 C   0  0  0  0  0  0  0  0  0  0  0  0
   28.7940   51.3780    5.5730 C   0  0  0  0  0  0  0  0  0  0  0  0
   29.4720   52.2990    6.3460 C   0  0  0  0  0  0  0  0  0  0  0  0
   30.6380   51.8620    6.9380 C   0  0  0  0  0  0  0  0  0  0  0  0
   31.1090   50.5860    6.7770 C   0  0  0  0  0  0  0  0  0  0  0  0
   29.0020   53.6490    6.5180 N   0  0  0  0  0  0  0  0  0  0  0  0
   28.0750   54.2190    5.5410 C   0  0  0  0  0  0  0  0  0  0  0  0
   27.1430   55.1630    6.2750 C   0  0  0  0  0  0  0  0  0  0  0  0
   27.0680   54.8850    7.6730 N   0  0  0  0  0  0  0  0  0  0  0  0
   26.3140   53.6870    7.9910 C   0  0  0  0  0  0  0  0  0  0  0  0
   28.3070   55.0100    8.3700 C   0  0  0  0  0  0  0  0  0  0  0  0
   29.4800   54.3810    7.6680 C   0  0  0  0  0  0  0  0  0  0  0  0
   33.3740   45.1320    8.2250 N   0  0  2  0  0  0  0  0  0  0  0  0
   34.1880   44.4950    7.1970 C   0  0  0  0  0  0  0  0  0  0  0  0
   35.4850   45.3440    7.1900 C   0  0  0  0  0  0  0  0  0  0  0  0
   36.0160   45.5150    8.5560 C   0  0  1  0  0  0  0  0  0  0  0  0
   35.2720   44.8030    9.6340 C   0  0  0  0  0  0  0  0  0  0  0  0
   33.7990   45.1220    9.6410 C   0  0  0  0  0  0  0  0  0  0  0  0
   37.4620   45.7020    8.7410 C   0  0  0  0  0  0  0  0  0  0  0  0
   37.9160   47.0350    8.2890 C   0  0  0  0  0  0  0  0  0  0  0  0
   37.0260   48.1170    8.0140 N   0  0  0  0  0  0  0  0  0  0  0  0
   36.0140   48.0040    8.0500 H   0  0  0  0  0  0  0  0  0  0  0  0
   39.1480   47.2830    8.1230 O   0  0  0  0  0  0  0  0  0  0  0  0
   37.6550   49.4050    7.6780 C   0  0  0  0  0  0  0  0  0  0  0  0
   36.5710   50.2460    7.0360 C   0  0  0  0  0  0  0  0  0  0  0  0
   26.1480   47.5270    7.8230 O   0  0  0  0  0  0  0  0  0  0  0  0
   26.0200   48.8100    7.2150 C   0  0  0  0  0  0  0  0  0  0  0  0
   28.3677   48.1638    6.6092 H   0  0  0  0  0  0  0  0  0  0  0  0
   26.8169   45.1739    8.6444 H   0  0  0  0  0  0  0  0  0  0  0  0
   28.8755   44.6248    9.8357 H   0  0  0  0  0  0  0  0  0  0  0  0
   28.6936   49.4260    4.7950 H   0  0  0  0  0  0  0  0  0  0  0  0
   27.9168   51.6711    5.1150 H   0  0  0  0  0  0  0  0  0  0  0  0
   31.1754   52.5202    7.5237 H   0  0  0  0  0  0  0  0  0  0  0  0
   31.9862   50.3022    7.2406 H   0  0  0  0  0  0  0  0  0  0  0  0
   28.6204   54.7558    4.7931 H   0  0  0  0  0  0  0  0  0  0  0  0
   27.5160   53.4425    5.0619 H   0  0  0  0  0  0  0  0  0  0  0  0
   26.1632   55.0725    5.8547 H   0  0  0  0  0  0  0  0  0  0  0  0
   27.5313   56.1537    6.1624 H   0  0  0  0  0  0  0  0  0  0  0  0
   25.4054   53.6769    7.4259 H   0  0  0  0  0  0  0  0  0  0  0  0
   26.0842   53.6771    9.0360 H   0  0  0  0  0  0  0  0  0  0  0  0
   26.8962   52.8235    7.7456 H   0  0  0  0  0  0  0  0  0  0  0  0
   28.5141   56.0516    8.5006 H   0  0  0  0  0  0  0  0  0  0  0  0
   28.1902   54.4891    9.2973 H   0  0  0  0  0  0  0  0  0  0  0  0
   30.1595   55.1441    7.3505 H   0  0  0  0  0  0  0  0  0  0  0  0
   29.9866   53.7155    8.3354 H   0  0  0  0  0  0  0  0  0  0  0  0
   34.3979   43.4770    7.4509 H   0  0  0  0  0  0  0  0  0  0  0  0
   33.7052   44.4612    6.2427 H   0  0  0  0  0  0  0  0  0  0  0  0
   35.2701   46.3068    6.7757 H   0  0  0  0  0  0  0  0  0  0  0  0
   36.2200   44.8363    6.6010 H   0  0  0  0  0  0  0  0  0  0  0  0
   35.7425   46.5357    8.7242 H   0  0  0  0  0  0  0  0  0  0  0  0
   35.6868   45.0858   10.5789 H   0  0  0  0  0  0  0  0  0  0  0  0
   35.3717   43.7532    9.4527 H   0  0  0  0  0  0  0  0  0  0  0  0
   33.2600   44.3748   10.1851 H   0  0  0  0  0  0  0  0  0  0  0  0
   33.6053   46.0623   10.1135 H   0  0  0  0  0  0  0  0  0  0  0  0
   37.6932   45.5934    9.7801 H   0  0  0  0  0  0  0  0  0  0  0  0
   37.9663   44.9659    8.1505 H   0  0  0  0  0  0  0  0  0  0  0  0
   38.0201   49.8823    8.5633 H   0  0  0  0  0  0  0  0  0  0  0  0
   38.4890   49.2735    7.0207 H   0  0  0  0  0  0  0  0  0  0  0  0
   35.7546   50.3572    7.7186 H   0  0  0  0  0  0  0  0  0  0  0  0
   36.2273   49.7647    6.1443 H   0  0  0  0  0  0  0  0  0  0  0  0
   36.9654   51.2102    6.7916 H   0  0  0  0  0  0  0  0  0  0  0  0
   24.9851   49.0753    7.1566 H   0  0  0  0  0  0  0  0  0  0  0  0
   26.4370   48.7811    6.2300 H   0  0  0  0  0  0  0  0  0  0  0  0
   26.5419   49.5366    7.8021 H   0  0  0  0  0  0  0  0  0  0  0  0
  1  2  1  1  0  0  0
  1 28  1  0  0  0  0
  1 11  1  0  0  0  0
  3  2  1  0  0  0  0
  4  2  1  0  0  0  0
  4  5  2  0  0  0  0
  5 10  1  0  0  0  0
  6  5  1  0  0  0  0
  6  7  2  0  0  0  0
  6 43  1  0  0  0  0
  7  8  1  0  0  0  0
  8  9  1  0  0  0  0
  8 44  1  0  0  0  0
  9 45  1  0  0  0  0
 10 11  1  0  0  0  0
 10  9  2  0  0  0  0
 11 12  1  0  0  0  0
 13 15  1  0  0  0  0
 13  4  1  0  0  0  0
 14 13  1  0  0  0  0
 15 20  2  0  0  0  0
 16 17  2  0  0  0  0
 16 15  1  0  0  0  0
 16 46  1  0  0  0  0
 17 18  1  0  0  0  0
 17 47  1  0  0  0  0
 18 21  1  0  0  0  0
 18 19  2  0  0  0  0
 19 48  1  0  0  0  0
 20 19  1  0  0  0  0
 20 49  1  0  0  0  0
 21 27  1  0  0  0  0
 22 23  1  0  0  0  0
 22 21  1  0  0  0  0
 22 50  1  0  0  0  0
 22 51  1  0  0  0  0
 23 24  1  0  0  0  0
 23 52  1  0  0  0  0
 23 53  1  0  0  0  0
 24 25  1  0  0  0  0
 24 26  1  0  0  0  0
 25 54  1  0  0  0  0
 25 55  1  0  0  0  0
 25 56  1  0  0  0  0
 26 57  1  0  0  0  0
 26 58  1  0  0  0  0
 27 26  1  0  0  0  0
 27 59  1  0  0  0  0
 27 60  1  0  0  0  0
 28 29  1  1  0  0  0
 28 33  1  0  0  0  0
 29 61  1  0  0  0  0
 29 62  1  0  0  0  0
 30 29  1  0  0  0  0
 30 31  1  0  0  0  0
 30 63  1  0  0  0  0
 30 64  1  0  0  0  0
 31 34  1  0  0  0  0
 31 32  1  0  0  0  0
 31 65  1  1  0  0  0
 32 33  1  0  0  0  0
 32 66  1  0  0  0  0
 32 67  1  0  0  0  0
 33 68  1  0  0  0  0
 33 69  1  0  0  0  0
 34 70  1  0  0  0  0
 34 71  1  0  0  0  0
 35 34  1  0  0  0  0
 36 37  1  0  0  0  0
 36 35  1  0  0  0  0
 38 35  2  0  0  0  0
 39 36  1  0  0  0  0
 39 72  1  0  0  0  0
 39 73  1  0  0  0  0
 40 39  1  0  0  0  0
 40 74  1  0  0  0  0
 40 75  1  0  0  0  0
 40 76  1  0  0  0  0
 41  7  1  0  0  0  0
 42 41  1  0  0  0  0
 42 77  1  0  0  0  0
 42 78  1  0  0  0  0
 42 79  1  0  0  0  0
M  END
>  <REMARK>
 VINA RESULT:      -7.5      2.549      9.037
  8 active torsions:
  status: ('A' for Active; 'I' for Inactive)
    1  A    between atoms: C_2  and  N_3 
       I    between atoms: N_3  and  C_5 
    2  A    between atoms: C_5  and  C_7 
    3  A    between atoms: C_7  and  C_8 
    4  A    between atoms: N_11  and  C_12 
    5  A    between atoms: C_15  and  N_16 
    6  A    between atoms: N_16  and  C_18 
    7  A    between atoms: C_21  and  N_22 
    8  A    between atoms: C_33  and  O_34 

>  <TORSDO>
F 8

$$$$
resistance_project/docking/5319283d3047ac55/Q9UM73_L1196M/docked/molecule_0003_out.pdbqt
 OpenBabel09232609183D

 79 83  0  0  1  0  0  0  0  0999 V2000
   27.9680   48.3750    7.0420 C   0  0  2  0  0  0  0  0  0  0  0  0
   29.0170   48.3070    6.2400 N   0  0  0  0  0  0  0  0  0  0  0  0
   29.1420   48.9820    5.4850 H   0  0  0  0  0  0  0  0  0  0  0  0
   29.9320   47.3060    6.4450 C   0  0  0  0  0  0  0  0  0  0  0  0
   29.7040   46.4160    7.4870 C   0  0  0  0  0  0  0  0  0  0  0  0
   30.5760   45.3770    7.7310 C   0  0  0  0  0  0  0  0  0  0  0  0
   30.3550   44.4830    8.7360 C   0  0  0  0  0  0  0  0  0  0  0  0
   29.2540   44.5500    9.5800 C   0  0  0  0  0  0  0  0  0  0  0  0
   28.3570   45.6040    9.3430 C   0  0  0  0  0  0  0  0  0  0  0  0
   28.6040   46.4990    8.3140 C   0  0  0  0  0  0  0  0  0  0  0  0
   27.7400   47.5010    8.0680 N   0  0  0  0  0  0  0  0  0  0  0  0
   26.9100   47.6080    8.6490 H   0  0  0  0  0  0  0  0  0  0  0  0
   31.0080   47.2670    5.5710 N   0  0  0  0  0  0  0  0  0  0  0  0
   30.8060   46.9010    4.6400 H   0  0  0  0  0  0  0  0  0  0  0  0
   32.3180   47.6550    5.7890 C   0  0  0  0  0  0  0  0  0  0  0  0
   32.5660   48.7120    6.6460 C   0  0  0  0  0  0  0  0  0  0  0  0
   33.8740   49.0820    6.9160 C   0  0  0  0  0  0  0  0  0  0  0  0
   34.9670   48.4440    6.3660 C   0  0  0  0  0  0  0  0  0  0  0  0
   34.6980   47.3930    5.5140 C   0  0  0  0  0  0  0  0  0  0  0  0
   33.4210   46.9950    5.2220 C   0  0  0  0  0  0  0  0  0  0  0  0
   36.3170   48.8540    6.6490 N   0  0  0  0  0  0  0  0  0  0  0  0
   37.3220   48.8080    5.5870 C   0  0  0  0  0  0  0  0  0  0  0  0
   38.2890   49.9540    5.8060 C   0  0  0  0  0  0  0  0  0  0  0  0
   37.7310   51.0000    6.6030 N   0  0  0  0  0  0  0  0  0  0  0  0
   36.7400   51.7980    5.9080 C   0  0  0  0  0  0  0  0  0  0  0  0
   37.3570   50.6040    7.9220 C   0  0  0  0  0  0  0  0  0  0  0  0
   36.6130   49.2980    7.9920 C   0  0  0  0  0  0  0  0  0  0  0  0
   26.9550   49.3880    6.8900 N   0  0  2  0  0  0  0  0  0  0  0  0
   27.2870   50.7360    6.4460 C   0  0  0  0  0  0  0  0  0  0  0  0
   26.5600   50.8530    5.0820 C   0  0  0  0  0  0  0  0  0  0  0  0
   25.1500   50.4350    5.1930 C   0  0  1  0  0  0  0  0  0  0  0  0
   24.6910   50.0630    6.5620 C   0  0  0  0  0  0  0  0  0  0  0  0
   25.5610   49.0180    7.2120 C   0  0  0  0  0  0  0  0  0  0  0  0
   24.1580   51.0210    4.2820 C   0  0  0  0  0  0  0  0  0  0  0  0
   24.6890   51.1950    2.9130 C   0  0  0  0  0  0  0  0  0  0  0  0
   25.0670   52.4610    2.3720 N   0  0  0  0  0  0  0  0  0  0  0  0
   24.9240   53.3310    2.8840 H   0  0  0  0  0  0  0  0  0  0  0  0
   24.8370   50.2020    2.1400 O   0  0  0  0  0  0  0  0  0  0  0  0
   25.6770   52.4380    1.0320 C   0  0  0  0  0  0  0  0  0  0  0  0
   27.1500   52.7240    1.2370 C   0  0  0  0  0  0  0  0  0  0  0  0
   31.2350   43.4340    8.9790 O   0  0  0  0  0  0  0  0  0  0  0  0
   32.2320   43.1040    8.0150 C   0  0  0  0  0  0  0  0  0  0  0  0
   31.4153   45.2735    7.1394 H   0  0  0  0  0  0  0  0  0  0  0  0
   29.6159   44.6478   10.5822 H   0  0  0  0  0  0  0  0  0  0  0  0
   27.5170   45.7118    9.9328 H   0  0  0  0  0  0  0  0  0  0  0  0
   31.7818   49.2220    7.0817 H   0  0  0  0  0  0  0  0  0  0  0  0
   34.0384   49.8723    7.5590 H   0  0  0  0  0  0  0  0  0  0  0  0
   35.4876   46.8887    5.0812 H   0  0  0  0  0  0  0  0  0  0  0  0
   33.2672   46.2025    4.5791 H   0  0  0  0  0  0  0  0  0  0  0  0
   37.8480   47.8770    5.6251 H   0  0  0  0  0  0  0  0  0  0  0  0
   36.8539   48.8952    4.6288 H   0  0  0  0  0  0  0  0  0  0  0  0
   38.5628   50.3579    4.8537 H   0  0  0  0  0  0  0  0  0  0  0  0
   39.1377   49.5659    6.3294 H   0  0  0  0  0  0  0  0  0  0  0  0
   37.1031   52.0477    4.9330 H   0  0  0  0  0  0  0  0  0  0  0  0
   36.5538   52.6955    6.4600 H   0  0  0  0  0  0  0  0  0  0  0  0
   35.8317   51.2397    5.8181 H   0  0  0  0  0  0  0  0  0  0  0  0
   36.7322   51.3676    8.3360 H   0  0  0  0  0  0  0  0  0  0  0  0
   38.2664   50.4668    8.4688 H   0  0  0  0  0  0  0  0  0  0  0  0
   37.2173   48.5667    8.4868 H   0  0  0  0  0  0  0  0  0  0  0  0
   35.7027   49.4288    8.5390 H   0  0  0  0  0  0  0  0  0  0  0  0
   26.9240   51.4674    7.1375 H   0  0  0  0  0  0  0  0  0  0  0  0
   28.3411   50.9047    6.3738 H   0  0  0  0  0  0  0  0  0  0  0  0
   26.5978   51.8702    4.7522 H   0  0  0  0  0  0  0  0  0  0  0  0
   27.0500   50.2110    4.3801 H   0  0  0  0  0  0  0  0  0  0  0  0
   25.2096   49.4850    4.7044 H   0  0  0  0  0  0  0  0  0  0  0  0
   23.6932   49.6823    6.4952 H   0  0  0  0  0  0  0  0  0  0  0  0
   24.7432   50.9439    7.1671 H   0  0  0  0  0  0  0  0  0  0  0  0
   25.3338   48.0489    6.8194 H   0  0  0  0  0  0  0  0  0  0  0  0
   25.4011   48.9784    8.2692 H   0  0  0  0  0  0  0  0  0  0  0  0
   23.3049   50.3764    4.2411 H   0  0  0  0  0  0  0  0  0  0  0  0
   23.8983   51.9884    4.6584 H   0  0  0  0  0  0  0  0  0  0  0  0
   25.5445   51.4773    0.5800 H   0  0  0  0  0  0  0  0  0  0  0  0
   25.2249   53.1594    0.3839 H   0  0  0  0  0  0  0  0  0  0  0  0
   27.5694   51.9857    1.8881 H   0  0  0  0  0  0  0  0  0  0  0  0
   27.2676   53.6934    1.6743 H   0  0  0  0  0  0  0  0  0  0  0  0
   27.6537   52.6949    0.2934 H   0  0  0  0  0  0  0  0  0  0  0  0
   32.8118   42.2778    8.3701 H   0  0  0  0  0  0  0  0  0  0  0  0
   32.8713   43.9479    7.8599 H   0  0  0  0  0  0  0  0  0  0  0  0
   31.7612   42.8386    7.0915 H   0  0  0  0  0  0  0  0  0  0  0  0
  1  2  1  6  0  0  0
  1 11  1  0  0  0  0
  2  4  1  0  0  0  0
  3  2  1  0  0  0  0
  4  5  2  0  0  0  0
  5  6  1  0  0  0  0
  5 10  1  0  0  0  0
  6  7  2  0  0  0  0
  6 43  1  0  0  0  0
  7 41  1  0  0  0  0
  7  8  1  0  0  0  0
  8 44  1  0  0  0  0
  9  8  1  0  0  0  0
  9 45  1  0  0  0  0
 10  9  2  0  0  0  0
 11 10  1  0  0  0  0
 11 12  1  0  0  0  0
 13 15  1  0  0  0  0
 13  4  1  0  0  0  0
 14 13  1  0  0  0  0
 15 16  2  0  0  0  0
 16 17  1  0  0  0  0
 16 46  1  0  0  0  0
 17 47  1  0  0  0  0
 18 21  1  0  0  0  0
 18 17  2  0  0  0  0
 19 18  1  0  0  0  0
 19 48  1  0  0  0  0
 20 19  2  0  0  0  0
 20 15  1  0  0  0  0
 20 49  1  0  0  0  0
 21 27  1  0  0  0  0
 22 23  1  0  0  0  0
 22 21  1  0  0  0  0
 22 50  1  0  0  0  0
 22 51  1  0  0  0  0
 23 24  1  0  0  0  0
 23 52  1  0  0  0  0
 23 53  1  0  0  0  0
 24 26  1  0  0  0  0
 25 24  1  0  0  0  0
 25 54  1  0  0  0  0
 25 55  1  0  0  0  0
 25 56  1  0  0  0  0
 26 27  1  0  0  0  0
 26 57  1  0  0  0  0
 26 58  1  0  0  0  0
 27 59  1  0  0  0  0
 27 60  1  0  0  0  0
 28 29  1  1  0  0  0
 28  1  1  0  0  0  0
 28 33  1  0  0  0  0
 29 61  1  0  0  0  0
 29 62  1  0  0  0  0
 30 31  1  0  0  0  0
 30 29  1  0  0  0  0
 30 63  1  0  0  0  0
 30 64  1  0  0  0  0
 31 32  1  0  0  0  0
 31 65  1  6  0  0  0
 32 33  1  0  0  0  0
 32 66  1  0  0  0  0
 32 67  1  0  0  0  0
 33 68  1  0  0  0  0
 33 69  1  0  0  0  0
 34 31  1  0  0  0  0
 34 70  1  0  0  0  0
 34 71  1  0  0  0  0
 35 34  1  0  0  0  0
 36 37  1  0  0  0  0
 36 35  1  0  0  0  0
 38 35  2  0  0  0  0
 39 40  1  0  0  0  0
 39 36  1  0  0  0  0
 39 72  1  0  0  0  0
 39 73  1  0  0  0  0
 40 74  1  0  0  0  0
 40 75  1  0  0  0  0
 40 76  1  0  0  0  0
 42 41  1  0  0  0  0
 42 77  1  0  0  0  0
 42 78  1  0  0  0  0
 42 79  1  0  0  0  0
M  END
>  <REMARK>
 VINA RESULT:      -7.4      2.918      3.915
  8 active torsions:
  status: ('A' for Active; 'I' for Inactive)
    1  A    between atoms: C_2  and  N_3 
       I    between atoms: N_3  and  C_5 
    2  A    between atoms: C_5  and  C_7 
    3  A    between atoms: C_7  and  C_8 
    4  A    between atoms: N_11  and  C_12 
    5  A    between atoms: C_15  and  N_16 
    6  A    between atoms: N_16  and  C_18 
    7  A    between atoms: C_21  and  N_22 
    8  A    between atoms: C_33  and  O_34 

>  <TORSDO>
F 8

$$$$
resistance_project/docking/5319283d3047ac55/Q9UM73_L1196M/docked/molecule_0003_out.pdbqt
 OpenBabel09232609183D

 79 83  0  0  1  0  0  0  0  0999 V2000
   35.1130   47.4930    7.2350 C   0  0  2  0  0  0  0  0  0  0  0  0
   33.9700   47.5180    6.5700 N   0  0  0  0  0  0  0  0  0  0  0  0
   33.8240   48.1790    5.8080 H   0  0  0  0  0  0  0  0  0  0  0  0
   32.9860   46.6330    6.9310 C   0  0  0  0  0  0  0  0  0  0  0  0
   33.2440   45.7600    7.9800 C   0  0  0  0  0  0  0  0  0  0  0  0
   32.2880   44.8620    8.4030 C   0  0  0  0  0  0  0  0  0  0  0  0
   32.5200   44.0130    9.4440 C   0  0  0  0  0  0  0  0  0  0  0  0
   33.7170   43.9850   10.1460 C   0  0  0  0  0  0  0  0  0  0  0  0
   34.7020   44.8940    9.7250 C   0  0  0  0  0  0  0  0  0  0  0  0
   34.4410   45.7480    8.6640 C   0  0  0  0  0  0  0  0  0  0  0  0
   35.3710   46.6350    8.2670 N   0  0  0  0  0  0  0  0  0  0  0  0
   36.2740   46.6680    8.7390 H   0  0  0  0  0  0  0  0  0  0  0  0
   31.8010   46.7050    6.2150 N   0  0  0  0  0  0  0  0  0  0  0  0
   31.7550   46.1220    5.3790 H   0  0  0  0  0  0  0  0  0  0  0  0
   30.6700   47.4590    6.4790 C   0  0  0  0  0  0  0  0  0  0  0  0
   30.6680   48.7990    6.1360 C   0  0  0  0  0  0  0  0  0  0  0  0
   29.5280   49.5580    6.3450 C   0  0  0  0  0  0  0  0  0  0  0  0
   28.3690   49.0420    6.8900 C   0  0  0  0  0  0  0  0  0  0  0  0
   28.3920   47.7050    7.2250 C   0  0  0  0  0  0  0  0  0  0  0  0
   29.4970   46.9190    7.0330 C   0  0  0  0  0  0  0  0  0  0  0  0
   27.2000   49.8520    7.1120 N   0  0  0  0  0  0  0  0  0  0  0  0
   27.3100   51.3090    7.0480 C   0  0  0  0  0  0  0  0  0  0  0  0
   26.0100   51.8540    6.4920 C   0  0  0  0  0  0  0  0  0  0  0  0
   25.2770   50.8780    5.7500 N   0  0  0  0  0  0  0  0  0  0  0  0
   25.8550   50.5760    4.4540 C   0  0  0  0  0  0  0  0  0  0  0  0
   24.8800   49.7350    6.5050 C   0  0  0  0  0  0  0  0  0  0  0  0
   25.9580   49.1700    7.3910 C   0  0  0  0  0  0  0  0  0  0  0  0
   36.1950   48.3920    6.9270 N   0  0  2  0  0  0  0  0  0  0  0  0
   36.0470   49.4500    5.9350 C   0  0  0  0  0  0  0  0  0  0  0  0
   36.1870   50.7470    6.7710 C   0  0  0  0  0  0  0  0  0  0  0  0
   37.3840   50.7000    7.6310 C   0  0  1  0  0  0  0  0  0  0  0  0
   38.2400   49.4880    7.4830 C   0  0  0  0  0  0  0  0  0  0  0  0
   37.4720   48.2010    7.6460 C   0  0  0  0  0  0  0  0  0  0  0  0
   38.0490   51.9570    8.0000 C   0  0  0  0  0  0  0  0  0  0  0  0
   37.9860   52.9620    6.9170 C   0  0  0  0  0  0  0  0  0  0  0  0
   37.1510   54.1200    6.9660 N   0  0  0  0  0  0  0  0  0  0  0  0
   36.4970   54.2790    7.7310 H   0  0  0  0  0  0  0  0  0  0  0  0
   38.6880   52.8370    5.8690 O   0  0  0  0  0  0  0  0  0  0  0  0
   37.2930   55.0690    5.8500 C   0  0  0  0  0  0  0  0  0  0  0  0
   37.9650   56.2980    6.4280 C   0  0  0  0  0  0  0  0  0  0  0  0
   31.5520   43.1100    9.8710 O   0  0  0  0  0  0  0  0  0  0  0  0
   30.1910   43.2940    9.4930 C   0  0  0  0  0  0  0  0  0  0  0  0
   31.3760   44.8316    7.9209 H   0  0  0  0  0  0  0  0  0  0  0  0
   34.1237   42.9991   10.0595 H   0  0  0  0  0  0  0  0  0  0  0  0
   35.6159   44.9261   10.2033 H   0  0  0  0  0  0  0  0  0  0  0  0
   31.5111   49.2310    5.7266 H   0  0  0  0  0  0  0  0  0  0  0  0
   29.5459   50.5555    6.0811 H   0  0  0  0  0  0  0  0  0  0  0  0
   27.5455   47.2808    7.6355 H   0  0  0  0  0  0  0  0  0  0  0  0
   29.4679   45.9219    7.2974 H   0  0  0  0  0  0  0  0  0  0  0  0
   27.4792   51.7036    8.0281 H   0  0  0  0  0  0  0  0  0  0  0  0
   28.1295   51.5922    6.4211 H   0  0  0  0  0  0  0  0  0  0  0  0
   25.4038   52.1913    7.3066 H   0  0  0  0  0  0  0  0  0  0  0  0
   26.2536   52.6531    5.8234 H   0  0  0  0  0  0  0  0  0  0  0  0
   26.1217   51.4876    3.9612 H   0  0  0  0  0  0  0  0  0  0  0  0
   25.1408   50.0451    3.8599 H   0  0  0  0  0  0  0  0  0  0  0  0
   26.7288   49.9726    4.5851 H   0  0  0  0  0  0  0  0  0  0  0  0
   24.5749   48.9713    5.8205 H   0  0  0  0  0  0  0  0  0  0  0  0
   24.0900   50.0554    7.1516 H   0  0  0  0  0  0  0  0  0  0  0  0
   26.0712   48.1240    7.1960 H   0  0  0  0  0  0  0  0  0  0  0  0
   25.6919   49.3085    8.4181 H   0  0  0  0  0  0  0  0  0  0  0  0
   36.8145   49.3885    5.1920 H   0  0  0  0  0  0  0  0  0  0  0  0
   35.1219   49.3952    5.4002 H   0  0  0  0  0  0  0  0  0  0  0  0
   35.3192   50.8610    7.3865 H   0  0  0  0  0  0  0  0  0  0  0  0
   36.2843   51.5743    6.0995 H   0  0  0  0  0  0  0  0  0  0  0  0
   36.9123   50.5361    8.5773 H   0  0  0  0  0  0  0  0  0  0  0  0
   39.0102   49.5218    8.2250 H   0  0  0  0  0  0  0  0  0  0  0  0
   38.6406   49.4983    6.4909 H   0  0  0  0  0  0  0  0  0  0  0  0
   38.0192   47.3856    7.2209 H   0  0  0  0  0  0  0  0  0  0  0  0
   37.3089   47.9711    8.6782 H   0  0  0  0  0  0  0  0  0  0  0  0
   37.5709   52.3572    8.8696 H   0  0  0  0  0  0  0  0  0  0  0  0
   39.0800   51.7402    8.1870 H   0  0  0  0  0  0  0  0  0  0  0  0
   37.8975   54.6444    5.0759 H   0  0  0  0  0  0  0  0  0  0  0  0
   36.3443   55.3088    5.4170 H   0  0  0  0  0  0  0  0  0  0  0  0
   38.9083   56.0228    6.8514 H   0  0  0  0  0  0  0  0  0  0  0  0
   37.3423   56.7205    7.1887 H   0  0  0  0  0  0  0  0  0  0  0  0
   38.1189   57.0185    5.6521 H   0  0  0  0  0  0  0  0  0  0  0  0
   29.5957   42.5089    9.9102 H   0  0  0  0  0  0  0  0  0  0  0  0
   30.1112   43.2736    8.4262 H   0  0  0  0  0  0  0  0  0  0  0  0
   29.8437   44.2377    9.8586 H   0  0  0  0  0  0  0  0  0  0  0  0
  1  2  1  1  0  0  0
  1 11  1  0  0  0  0
  2  4  1  0  0  0  0
  3  2  1  0  0  0  0
  4  5  2  0  0  0  0
  5  6  1  0  0  0  0
  5 10  1  0  0  0  0
  6  7  2  0  0  0  0
  6 43  1  0  0  0  0
  7 41  1  0  0  0  0
  7  8  1  0  0  0  0
  8 44  1  0  0  0  0
  9  8  1  0  0  0  0
  9 45  1  0  0  0  0
 10  9  2  0  0  0  0
 11 10  1  0  0  0  0
 11 12  1  0  0  0  0
 13 15  1  0  0  0  0
 13  4  1  0  0  0  0
 14 13  1  0  0  0  0
 15 20  2  0  0  0  0
 16 17  2  0  0  0  0
 16 15  1  0  0  0  0
 16 46  1  0  0  0  0
 17 18  1  0  0  0  0
 17 47  1  0  0  0  0
 18 21  1  0  0  0  0
 18 19  2  0  0  0  0
 19 48  1  0  0  0  0
 20 19  1  0  0  0  0
 20 49  1  0  0  0  0
 21 27  1  0  0  0  0
 22 21  1  0  0  0  0
 22 50  1  0  0  0  0
 22 51  1  0  0  0  0
 23 22  1  0  0  0  0
 23 52  1  0  0  0  0
 23 53  1  0  0  0  0
 24 23  1  0  0  0  0
 24 26  1  0  0  0  0
 25 24  1  0  0  0  0
 25 54  1  0  0  0  0
 25 55  1  0  0  0  0
 25 56  1  0  0  0  0
 26 27  1  0  0  0  0
 26 57  1  0  0  0  0
 26 58  1  0  0  0  0
 27 59  1  0  0  0  0
 27 60  1  0  0  0  0
 28 29  1  6  0  0  0
 28  1  1  0  0  0  0
 28 33  1  0  0  0  0
 29 30  1  0  0  0  0
 29 61  1  0  0  0  0
 29 62  1  0  0  0  0
 30 31  1  0  0  0  0
 30 63  1  0  0  0  0
 30 64  1  0  0  0  0
 31 34  1  0  0  0  0
 31 65  1  1  0  0  0
 32 31  1  0  0  0  0
 32 33  1  0  0  0  0
 32 66  1  0  0  0  0
 32 67  1  0  0  0  0
 33 68  1  0  0  0  0
 33 69  1  0  0  0  0
 34 70  1  0  0  0  0
 34 71  1  0  0  0  0
 35 36  1  0  0  0  0
 35 34  1  0  0  0  0
 36 37  1  0  0  0  0
 38 35  2  0  0  0  0
 39 40  1  0  0  0  0
 39 36  1  0  0  0  0
 39 72  1  0  0  0  0
 39 73  1  0  0  0  0
 40 74  1  0  0  0  0
 40 75  1  0  0  0  0
 40 76  1  0  0  0  0
 42 41  1  0  0  0  0
 42 77  1  0  0  0  0
 42 78  1  0  0  0  0
 42 79  1  0  0  0  0
M  END
>  <REMARK>
 VINA RESULT:      -7.4      3.232      8.599
  8 active torsions:
  status: ('A' for Active; 'I' for Inactive)
    1  A    between atoms: C_2  and  N_3 
       I    between atoms: N_3  and  C_5 
    2  A    between atoms: C_5  and  C_7 
    3  A    between atoms: C_7  and  C_8 
    4  A    between atoms: N_11  and  C_12 
    5  A    between atoms: C_15  and  N_16 
    6  A    between atoms: N_16  and  C_18 
    7  A    between atoms: C_21  and  N_22 
    8  A    between atoms: C_33  and  O_34 

>  <TORSDO>
F 8

$$$$
