resistance_project/docking/5319283d3047ac55/Q9UM73_L1196M/docked/molecule_0012_out.pdbqt
 OpenBabel09232609203D

 73 77  0  0  1  0  0  0  0  0999 V2000
   32.1910   43.5330    8.4760 C   0  0  0  0  0  0  0  0  0  0  0  0
   32.7300   42.4400    8.1520 C   0  0  0  0  0  0  0  0  0  0  0  0
   34.0270   42.2750    8.1410 N   0  0  0  0  0  0  0  0  0  0  0  0
   34.3640   41.3520    7.8650 H   0  0  0  0  0  0  0  0  0  0  0  0
   34.8600   43.0780    8.4180 C   0  0  2  0  0  0  0  0  0  0  0  0
   33.7390   44.5660    8.8460 S   0  0  0  0  0  0  0  0  0  0  0  0
   30.8720   44.1600    8.6310 C   0  0  0  0  0  0  0  0  0  0  0  0
   30.5450   45.1010    7.6480 C   0  0  0  0  0  0  0  0  0  0  0  0
   29.3220   45.7350    7.7220 C   0  0  0  0  0  0  0  0  0  0  0  0
   28.4410   45.4460    8.7470 C   0  0  0  0  0  0  0  0  0  0  0  0
   28.7800   44.5160    9.7070 C   0  0  0  0  0  0  0  0  0  0  0  0
   30.0130   43.8530    9.6630 C   0  0  0  0  0  0  0  0  0  0  0  0
   27.2040   46.1500    8.7380 N   0  0  0  0  0  0  0  0  0  0  0  0
   27.0190   47.3760    8.0650 C   0  0  0  0  0  0  0  0  0  0  0  0
   25.7210   47.9150    7.9930 N   0  0  0  0  0  0  0  0  0  0  0  0
   27.9610   48.0130    7.5230 O   0  0  0  0  0  0  0  0  0  0  0  0
   24.9790   47.4130    8.4840 H   0  0  0  0  0  0  0  0  0  0  0  0
   26.4140   45.7490    9.2420 H   0  0  0  0  0  0  0  0  0  0  0  0
   25.3550   49.0980    7.2970 C   0  0  1  0  0  0  0  0  0  0  0  0
   24.1900   49.2150    6.5810 C   0  0  0  0  0  0  0  0  0  0  0  0
   24.1860   50.4890    6.0570 C   0  0  0  0  0  0  0  0  0  0  0  0
   25.2810   51.0510    6.4550 O   0  0  0  0  0  0  0  0  0  0  0  0
   26.0030   50.2720    7.1890 N   0  0  0  0  0  0  0  0  0  0  0  0
   26.9030   50.5050    7.6100 H   0  0  0  0  0  0  0  0  0  0  0  0
   23.0990   51.0270    5.2110 C   0  0  0  0  0  0  0  0  0  0  0  0
   22.6400   49.9270    4.2640 C   0  0  0  0  0  0  0  0  0  0  0  0
   36.2670   43.2540    8.5140 N   0  0  0  0  0  0  0  0  0  0  0  0
   36.7550   42.7810    9.2760 H   0  0  0  0  0  0  0  0  0  0  0  0
   37.0420   44.0420    7.6250 C   0  0  2  0  0  0  0  0  0  0  0  0
   38.2600   44.5340    7.9330 N   0  0  0  0  0  0  0  0  0  0  0  0
   38.9560   45.2810    7.0530 C   0  0  1  0  0  0  0  0  0  0  0  0
   38.6610   44.3380    8.8500 H   0  0  0  0  0  0  0  0  0  0  0  0
   40.3120   45.8290    7.3950 C   0  0  0  0  0  0  0  0  0  0  0  0
   38.4640   45.5640    5.8320 N   0  0  0  0  0  0  0  0  0  0  0  0
   37.2560   45.0810    5.5130 C   0  0  0  0  0  0  0  0  0  0  0  0
   38.9950   46.1290    5.1700 H   0  0  0  0  0  0  0  0  0  0  0  0
   36.5220   44.3150    6.3940 C   0  0  0  0  0  0  0  0  0  0  0  0
   36.7160   45.3800    4.2100 N   0  0  0  0  0  0  0  0  0  0  0  0
   36.8150   46.7070    3.6670 C   0  0  0  0  0  0  0  0  0  0  0  0
   35.4890   47.1010    3.0650 C   0  0  0  0  0  0  0  0  0  0  0  0
   34.9020   46.0980    2.2260 N   0  0  0  0  0  0  0  0  0  0  0  0
   35.6600   44.8780    2.1250 C   0  0  0  0  0  0  0  0  0  0  0  0
   36.0660   44.3140    3.4510 C   0  0  0  0  0  0  0  0  0  0  0  0
   33.4950   45.9060    2.4030 C   0  0  0  0  0  0  0  0  0  0  0  0
   33.0040   46.3630    3.7590 C   0  0  0  0  0  0  0  0  0  0  0  0
   32.1255   41.6470    7.8859 H   0  0  0  0  0  0  0  0  0  0  0  0
   31.2047   45.3160    6.8841 H   0  0  0  0  0  0  0  0  0  0  0  0
   29.0626   46.4312    7.0057 H   0  0  0  0  0  0  0  0  0  0  0  0
   28.1160   44.3056   10.4685 H   0  0  0  0  0  0  0  0  0  0  0  0
   30.2696   43.1571   10.3805 H   0  0  0  0  0  0  0  0  0  0  0  0
   23.4626   48.4931    6.4595 H   0  0  0  0  0  0  0  0  0  0  0  0
   22.2814   51.3381    5.8272 H   0  0  0  0  0  0  0  0  0  0  0  0
   23.4494   51.8704    4.6535 H   0  0  0  0  0  0  0  0  0  0  0  0
   22.2921   49.0896    4.8320 H   0  0  0  0  0  0  0  0  0  0  0  0
   23.4592   49.6234    3.6462 H   0  0  0  0  0  0  0  0  0  0  0  0
   21.8460   50.2948    3.6482 H   0  0  0  0  0  0  0  0  0  0  0  0
   40.6897   46.3896    6.5656 H   0  0  0  0  0  0  0  0  0  0  0  0
   40.9788   45.0209    7.6125 H   0  0  0  0  0  0  0  0  0  0  0  0
   40.2335   46.4668    8.2505 H   0  0  0  0  0  0  0  0  0  0  0  0
   35.5932   43.9537    6.1259 H   0  0  0  0  0  0  0  0  0  0  0  0
   37.0715   47.3937    4.4465 H   0  0  0  0  0  0  0  0  0  0  0  0
   37.5719   46.7288    2.9110 H   0  0  0  0  0  0  0  0  0  0  0  0
   34.8078   47.3114    3.8629 H   0  0  0  0  0  0  0  0  0  0  0  0
   35.6750   47.9513    2.4427 H   0  0  0  0  0  0  0  0  0  0  0  0
   36.5445   45.0752    1.5560 H   0  0  0  0  0  0  0  0  0  0  0  0
   35.0278   44.1534    1.6557 H   0  0  0  0  0  0  0  0  0  0  0  0
   36.7475   43.5016    3.3077 H   0  0  0  0  0  0  0  0  0  0  0  0
   35.2105   43.9477    3.9790 H   0  0  0  0  0  0  0  0  0  0  0  0
   33.2763   44.8643    2.2941 H   0  0  0  0  0  0  0  0  0  0  0  0
   32.9950   46.4974    1.6646 H   0  0  0  0  0  0  0  0  0  0  0  0
   33.4853   45.7905    4.5241 H   0  0  0  0  0  0  0  0  0  0  0  0
   31.9451   46.2222    3.8209 H   0  0  0  0  0  0  0  0  0  0  0  0
   33.2343   47.3995    3.8910 H   0  0  0  0  0  0  0  0  0  0  0  0
  1  7  1  0  0  0  0
  1  6  1  0  0  0  0
  2  1  2  0  0  0  0
  2 46  1  0  0  0  0
  3  2  1  0  0  0  0
  3  5  1  0  0  0  0
  4  3  1  0  0  0  0
  5 27  1  6  0  0  0
  5  6  1  0  0  0  0
  7 12  2  0  0  0  0
  8  9  2  0  0  0  0
  8  7  1  0  0  0  0
  8 47  1  0  0  0  0
  9 10  1  0  0  0  0
  9 48  1  0  0  0  0
 10 11  2  0  0  0  0
 11 49  1  0  0  0  0
 12 11  1  0  0  0  0
 12 50  1  0  0  0  0
 13 10  1  0  0  0  0
 13 18  1  0  0  0  0
 14 13  1  0  0  0  0
 15 14  1  0  0  0  0
 15 17  1  0  0  0  0
 16 14  2  0  0  0  0
 19 15  1  1  0  0  0
 20 19  1  0  0  0  0
 20 51  1  0  0  0  0
 21 22  1  0  0  0  0
 21 20  2  0  0  0  0
 22 23  1  0  0  0  0
 23 19  1  0  0  0  0
 23 24  1  0  0  0  0
 25 21  1  0  0  0  0
 25 52  1  0  0  0  0
 25 53  1  0  0  0  0
 26 25  1  0  0  0  0
 26 54  1  0  0  0  0
 26 55  1  0  0  0  0
 26 56  1  0  0  0  0
 27 28  1  0  0  0  0
 29 30  1  0  0  0  0
 29 27  1  1  0  0  0
 30 32  1  0  0  0  0
 31 33  1  6  0  0  0
 31 30  1  0  0  0  0
 33 57  1  0  0  0  0
 33 58  1  0  0  0  0
 33 59  1  0  0  0  0
 34 31  1  0  0  0  0
 35 34  1  0  0  0  0
 35 37  2  0  0  0  0
 36 34  1  0  0  0  0
 37 29  1  0  0  0  0
 37 60  1  0  0  0  0
 38 35  1  0  0  0  0
 39 38  1  0  0  0  0
 39 61  1  0  0  0  0
 39 62  1  0  0  0  0
 40 39  1  0  0  0  0
 40 63  1  0  0  0  0
 40 64  1  0  0  0  0
 41 44  1  0  0  0  0
 41 40  1  0  0  0  0
 42 41  1  0  0  0  0
 42 43  1  0  0  0  0
 42 65  1  0  0  0  0
 42 66  1  0  0  0  0
 43 38  1  0  0  0  0
 43 67  1  0  0  0  0
 43 68  1  0  0  0  0
 44 45  1  0  0  0  0
 44 69  1  0  0  0  0
 44 70  1  0  0  0  0
 45 71  1  0  0  0  0
 45 72  1  0  0  0  0
 45 73  1  0  0  0  0
M  END
>  <MODEL>
1

>  <REMARK>
 VINA RESULT:      -8.5      0.000      0.000
  8 active torsions:
  status: ('A' for Active; 'I' for Inactive)
    1  A    between atoms: C_2  and  C_3 
    2  A    between atoms: C_5  and  N_6 
       I    between atoms: N_6  and  C_8 
       I    between atoms: C_8  and  N_10 
    3  A    between atoms: N_10  and  C_12 
    4  A    between atoms: C_15  and  C_16 
    5  A    between atoms: C_20  and  N_21 
    6  A    between atoms: N_21  and  C_23 
    7  A    between atoms: C_30  and  N_31 
    8  A    between atoms: N_34  and  C_35 

>  <TORSDO>
F 8

$$$$
resistance_project/docking/5319283d3047ac55/Q9UM73_L1196M/docked/molecule_0012_out.pdbqt
 OpenBabel09232609203D

 73 77  0  0  1  0  0  0  0  0999 V2000
   29.2620   46.1190    8.1940 C   0  0  0  0  0  0  0  0  0  0  0  0
   28.0550   46.0070    8.5420 C   0  0  0  0  0  0  0  0  0  0  0  0
   27.1930   46.9810    8.4030 N   0  0  0  0  0  0  0  0  0  0  0  0
   26.2410   46.7900    8.7150 H   0  0  0  0  0  0  0  0  0  0  0  0
   27.3930   48.0640    7.9540 C   0  0  2  0  0  0  0  0  0  0  0  0
   29.2520   47.9000    7.5410 S   0  0  0  0  0  0  0  0  0  0  0  0
   30.5190   45.3600    8.1510 C   0  0  0  0  0  0  0  0  0  0  0  0
   30.3800   43.9770    8.3100 C   0  0  0  0  0  0  0  0  0  0  0  0
   31.5150   43.1920    8.2820 C   0  0  0  0  0  0  0  0  0  0  0  0
   32.7600   43.7630    8.1010 C   0  0  0  0  0  0  0  0  0  0  0  0
   32.8780   45.1280    7.9470 C   0  0  0  0  0  0  0  0  0  0  0  0
   31.7470   45.9560    7.9700 C   0  0  0  0  0  0  0  0  0  0  0  0
   33.8700   42.8730    8.0850 N   0  0  0  0  0  0  0  0  0  0  0  0
   34.3080   42.1650    9.2240 C   0  0  0  0  0  0  0  0  0  0  0  0
   35.3190   41.1990    9.0690 N   0  0  0  0  0  0  0  0  0  0  0  0
   33.8360   42.3550   10.3770 O   0  0  0  0  0  0  0  0  0  0  0  0
   35.7280   41.0960    8.1390 H   0  0  0  0  0  0  0  0  0  0  0  0
   34.3730   42.7400    7.2080 H   0  0  0  0  0  0  0  0  0  0  0  0
   35.8200   40.3550   10.0960 C   0  0  1  0  0  0  0  0  0  0  0  0
   35.0120   39.7240   11.0080 C   0  0  0  0  0  0  0  0  0  0  0  0
   35.8490   39.0030   11.8320 C   0  0  0  0  0  0  0  0  0  0  0  0
   37.0520   39.2180   11.4070 O   0  0  0  0  0  0  0  0  0  0  0  0
   37.0880   40.0070   10.3860 N   0  0  0  0  0  0  0  0  0  0  0  0
   37.9240   40.3120    9.8890 H   0  0  0  0  0  0  0  0  0  0  0  0
   35.3770   38.1740   12.9610 C   0  0  0  0  0  0  0  0  0  0  0  0
   36.5290   37.2930   13.4230 C   0  0  0  0  0  0  0  0  0  0  0  0
   26.7510   49.2990    7.6660 N   0  0  0  0  0  0  0  0  0  0  0  0
   27.2010   50.1560    7.9880 H   0  0  0  0  0  0  0  0  0  0  0  0
   25.5260   49.4240    6.9600 C   0  0  2  0  0  0  0  0  0  0  0  0
   24.3840   48.8140    7.3370 N   0  0  0  0  0  0  0  0  0  0  0  0
   23.2450   48.9620    6.6310 C   0  0  2  0  0  0  0  0  0  0  0  0
   24.3820   48.2290    8.1730 H   0  0  0  0  0  0  0  0  0  0  0  0
   21.9730   48.2830    7.0500 C   0  0  0  0  0  0  0  0  0  0  0  0
   23.2040   49.7240    5.5220 N   0  0  0  0  0  0  0  0  0  0  0  0
   24.3320   50.3360    5.1370 C   0  0  0  0  0  0  0  0  0  0  0  0
   22.3400   49.8330    4.9910 H   0  0  0  0  0  0  0  0  0  0  0  0
   25.5100   50.2020    5.8400 C   0  0  0  0  0  0  0  0  0  0  0  0
   24.3010   51.1520    3.9490 N   0  0  0  0  0  0  0  0  0  0  0  0
   23.0530   51.6450    3.4340 C   0  0  0  0  0  0  0  0  0  0  0  0
   23.0160   51.4500    1.9400 C   0  0  0  0  0  0  0  0  0  0  0  0
   24.2070   51.8670    1.2610 N   0  0  0  0  0  0  0  0  0  0  0  0
   25.2450   52.3710    2.1220 C   0  0  0  0  0  0  0  0  0  0  0  0
   25.5590   51.4690    3.2750 C   0  0  0  0  0  0  0  0  0  0  0  0
   24.6680   50.9760    0.2400 C   0  0  0  0  0  0  0  0  0  0  0  0
   25.7060   51.6040   -0.6630 C   0  0  0  0  0  0  0  0  0  0  0  0
   27.7359   45.1149    8.9511 H   0  0  0  0  0  0  0  0  0  0  0  0
   29.4490   43.5529    8.4453 H   0  0  0  0  0  0  0  0  0  0  0  0
   31.4329   42.1697    8.3973 H   0  0  0  0  0  0  0  0  0  0  0  0
   33.8120   45.5460    7.8129 H   0  0  0  0  0  0  0  0  0  0  0  0
   31.8319   46.9781    7.8551 H   0  0  0  0  0  0  0  0  0  0  0  0
   33.9830   39.7784   11.0654 H   0  0  0  0  0  0  0  0  0  0  0  0
   34.5588   37.5621   12.6430 H   0  0  0  0  0  0  0  0  0  0  0  0
   35.0467   38.7993   13.7640 H   0  0  0  0  0  0  0  0  0  0  0  0
   36.8508   36.6727   12.6127 H   0  0  0  0  0  0  0  0  0  0  0  0
   36.2038   36.6778   14.2358 H   0  0  0  0  0  0  0  0  0  0  0  0
   37.3422   37.9092   13.7452 H   0  0  0  0  0  0  0  0  0  0  0  0
   21.1933   48.5290    6.3598 H   0  0  0  0  0  0  0  0  0  0  0  0
   21.6988   48.6129    8.0302 H   0  0  0  0  0  0  0  0  0  0  0  0
   22.1205   47.2232    7.0586 H   0  0  0  0  0  0  0  0  0  0  0  0
   26.3666   50.6829    5.5237 H   0  0  0  0  0  0  0  0  0  0  0  0
   22.2441   51.1084    3.8842 H   0  0  0  0  0  0  0  0  0  0  0  0
   22.9591   52.6864    3.6610 H   0  0  0  0  0  0  0  0  0  0  0  0
   22.8640   50.4096    1.7416 H   0  0  0  0  0  0  0  0  0  0  0  0
   22.2217   52.0643    1.5705 H   0  0  0  0  0  0  0  0  0  0  0  0
   24.9329   53.3184    2.5091 H   0  0  0  0  0  0  0  0  0  0  0  0
   26.1339   52.4453    1.5310 H   0  0  0  0  0  0  0  0  0  0  0  0
   26.2215   51.9636    3.9543 H   0  0  0  0  0  0  0  0  0  0  0  0
   26.0349   50.5744    2.9313 H   0  0  0  0  0  0  0  0  0  0  0  0
   25.0977   50.1145    0.7069 H   0  0  0  0  0  0  0  0  0  0  0  0
   23.8255   50.7202   -0.3679 H   0  0  0  0  0  0  0  0  0  0  0  0
   26.5655   51.8730   -0.0853 H   0  0  0  0  0  0  0  0  0  0  0  0
   25.2966   52.4795   -1.1221 H   0  0  0  0  0  0  0  0  0  0  0  0
   25.9903   50.9038   -1.4205 H   0  0  0  0  0  0  0  0  0  0  0  0
  1  2  2  0  0  0  0
  2 46  1  0  0  0  0
  3  2  1  0  0  0  0
  3  4  1  0  0  0  0
  5 27  1  1  0  0  0
  5  3  1  0  0  0  0
  6  5  1  0  0  0  0
  6  1  1  0  0  0  0
  7  1  1  0  0  0  0
  7  8  2  0  0  0  0
  8 47  1  0  0  0  0
  9  8  1  0  0  0  0
  9 48  1  0  0  0  0
 10  9  2  0  0  0  0
 11 12  2  0  0  0  0
 11 10  1  0  0  0  0
 11 49  1  0  0  0  0
 12  7  1  0  0  0  0
 12 50  1  0  0  0  0
 13 10  1  0  0  0  0
 13 14  1  0  0  0  0
 14 16  2  0  0  0  0
 15 14  1  0  0  0  0
 17 15  1  0  0  0  0
 18 13  1  0  0  0  0
 19 15  1  6  0  0  0
 19 23  1  0  0  0  0
 19 20  1  0  0  0  0
 20 21  2  0  0  0  0
 20 51  1  0  0  0  0
 21 25  1  0  0  0  0
 22 21  1  0  0  0  0
 23 22  1  0  0  0  0
 24 23  1  0  0  0  0
 25 26  1  0  0  0  0
 25 52  1  0  0  0  0
 25 53  1  0  0  0  0
 26 54  1  0  0  0  0
 26 55  1  0  0  0  0
 26 56  1  0  0  0  0
 27 28  1  0  0  0  0
 29 30  1  0  0  0  0
 29 27  1  6  0  0  0
 30 32  1  0  0  0  0
 31 33  1  6  0  0  0
 31 30  1  0  0  0  0
 33 57  1  0  0  0  0
 33 58  1  0  0  0  0
 33 59  1  0  0  0  0
 34 31  1  0  0  0  0
 35 34  1  0  0  0  0
 35 37  2  0  0  0  0
 36 34  1  0  0  0  0
 37 29  1  0  0  0  0
 37 60  1  0  0  0  0
 38 35  1  0  0  0  0
 39 38  1  0  0  0  0
 39 61  1  0  0  0  0
 39 62  1  0  0  0  0
 40 39  1  0  0  0  0
 40 63  1  0  0  0  0
 40 64  1  0  0  0  0
 41 40  1  0  0  0  0
 41 42  1  0  0  0  0
 42 43  1  0  0  0  0
 42 65  1  0  0  0  0
 42 66  1  0  0  0  0
 43 38  1  0  0  0  0
 43 67  1  0  0  0  0
 43 68  1  0  0  0  0
 44 41  1  0  0  0  0
 44 69  1  0  0  0  0
 44 70  1  0  0  0  0
 45 44  1  0  0  0  0
 45 71  1  0  0  0  0
 45 72  1  0  0  0  0
 45 73  1  0  0  0  0
M  END
>  <REMARK>
 VINA RESULT:      -8.3      4.505     12.239
  8 active torsions:
  status: ('A' for Active; 'I' for Inactive)
    1  A    between atoms: C_2  and  C_3 
    2  A    between atoms: C_5  and  N_6 
       I    between atoms: N_6  and  C_8 
       I    between atoms: C_8  and  N_10 
    3  A    between atoms: N_10  and  C_12 
    4  A    between atoms: C_15  and  C_16 
    5  A    between atoms: C_20  and  N_21 
    6  A    between atoms: N_21  and  C_23 
    7  A    between atoms: C_30  and  N_31 
    8  A    between atoms: N_34  and  C_35 

>  <TORSDO>
F 8

$$$$
resistance_project/docking/5319283d3047ac55/Q9UM73_L1196M/docked/molecule_0012_out.pdbqt
 OpenBabel09232609203D

 73 77  0  0  1  0  0  0  0  0999 V2000
   30.3460   46.7050    7.7280 C   0  0  0  0  0  0  0  0  0  0  0  0
   30.0740   47.8200    7.2050 C   0  0  0  0  0  0  0  0  0  0  0  0
   28.8700   48.3310    7.2330 N   0  0  0  0  0  0  0  0  0  0  0  0
   28.7540   49.2390    6.7820 H   0  0  0  0  0  0  0  0  0  0  0  0
   27.8960   47.8580    7.7250 C   0  0  2  0  0  0  0  0  0  0  0  0
   28.6370   46.2320    8.4020 S   0  0  0  0  0  0  0  0  0  0  0  0
   31.4680   45.7810    7.9410 C   0  0  0  0  0  0  0  0  0  0  0  0
   31.1350   44.4230    7.8730 C   0  0  0  0  0  0  0  0  0  0  0  0
   32.1340   43.4890    8.0610 C   0  0  0  0  0  0  0  0  0  0  0  0
   33.4330   43.8900    8.3120 C   0  0  0  0  0  0  0  0  0  0  0  0
   33.7420   45.2320    8.3750 C   0  0  0  0  0  0  0  0  0  0  0  0
   32.7530   46.2080    8.1890 C   0  0  0  0  0  0  0  0  0  0  0  0
   34.3930   42.8550    8.4910 N   0  0  0  0  0  0  0  0  0  0  0  0
   34.4260   42.0230    9.6300 C   0  0  0  0  0  0  0  0  0  0  0  0
   35.3190   40.9350    9.6430 N   0  0  0  0  0  0  0  0  0  0  0  0
   33.6950   42.2070   10.6390 O   0  0  0  0  0  0  0  0  0  0  0  0
   35.9430   40.8330    8.8400 H   0  0  0  0  0  0  0  0  0  0  0  0
   35.0890   42.7060    7.7610 H   0  0  0  0  0  0  0  0  0  0  0  0
   35.4280   39.9670   10.6770 C   0  0  1  0  0  0  0  0  0  0  0  0
   36.6310   39.4880   11.1300 C   0  0  0  0  0  0  0  0  0  0  0  0
   36.3350   38.5800   12.1240 C   0  0  0  0  0  0  0  0  0  0  0  0
   35.0450   38.5520   12.2210 O   0  0  0  0  0  0  0  0  0  0  0  0
   34.4650   39.3530   11.3900 N   0  0  0  0  0  0  0  0  0  0  0  0
   33.4600   39.4940   11.2910 H   0  0  0  0  0  0  0  0  0  0  0  0
   37.3580   37.8260   12.8790 C   0  0  0  0  0  0  0  0  0  0  0  0
   36.6520   36.7680   13.7170 C   0  0  0  0  0  0  0  0  0  0  0  0
   26.5110   48.1000    7.9370 N   0  0  0  0  0  0  0  0  0  0  0  0
   26.0080   47.4680    8.5600 H   0  0  0  0  0  0  0  0  0  0  0  0
   25.7800   49.1610    7.3420 C   0  0  2  0  0  0  0  0  0  0  0  0
   24.5270   49.0240    6.8620 N   0  0  0  0  0  0  0  0  0  0  0  0
   23.8740   50.0620    6.3030 C   0  0  1  0  0  0  0  0  0  0  0  0
   24.0650   48.1170    6.9220 H   0  0  0  0  0  0  0  0  0  0  0  0
   22.4790   49.9110    5.7670 C   0  0  0  0  0  0  0  0  0  0  0  0
   24.4470   51.2770    6.2030 N   0  0  0  0  0  0  0  0  0  0  0  0
   25.6910   51.4260    6.6770 C   0  0  0  0  0  0  0  0  0  0  0  0
   23.9490   52.0590    5.7790 H   0  0  0  0  0  0  0  0  0  0  0  0
   26.3810   50.3810    7.2530 C   0  0  0  0  0  0  0  0  0  0  0  0
   26.3170   52.7210    6.5720 N   0  0  0  0  0  0  0  0  0  0  0  0
   27.7470   52.8480    6.6510 C   0  0  0  0  0  0  0  0  0  0  0  0
   28.0970   54.0010    7.5570 C   0  0  0  0  0  0  0  0  0  0  0  0
   27.3520   55.1980    7.3020 N   0  0  0  0  0  0  0  0  0  0  0  0
   26.3770   55.0890    6.2480 C   0  0  0  0  0  0  0  0  0  0  0  0
   25.4760   53.9020    6.3870 C   0  0  0  0  0  0  0  0  0  0  0  0
   26.8850   55.8830    8.4690 C   0  0  0  0  0  0  0  0  0  0  0  0
   27.9610   56.0600    9.5180 C   0  0  0  0  0  0  0  0  0  0  0  0
   30.8280   48.3480    6.7384 H   0  0  0  0  0  0  0  0  0  0  0  0
   30.1642   44.1267    7.6865 H   0  0  0  0  0  0  0  0  0  0  0  0
   31.9092   42.4829    8.0138 H   0  0  0  0  0  0  0  0  0  0  0  0
   34.7146   45.5221    8.5616 H   0  0  0  0  0  0  0  0  0  0  0  0
   32.9808   47.2134    8.2364 H   0  0  0  0  0  0  0  0  0  0  0  0
   37.5697   39.7542   10.7939 H   0  0  0  0  0  0  0  0  0  0  0  0
   37.8995   38.4917   13.5182 H   0  0  0  0  0  0  0  0  0  0  0  0
   38.0465   37.3621   12.2040 H   0  0  0  0  0  0  0  0  0  0  0  0
   35.9667   37.2430   14.3876 H   0  0  0  0  0  0  0  0  0  0  0  0
   37.3764   36.2162   14.2789 H   0  0  0  0  0  0  0  0  0  0  0  0
   36.1170   36.1016   13.0732 H   0  0  0  0  0  0  0  0  0  0  0  0
   22.1465   50.8470    5.3691 H   0  0  0  0  0  0  0  0  0  0  0  0
   21.8245   49.6065    6.5568 H   0  0  0  0  0  0  0  0  0  0  0  0
   22.4723   49.1720    4.9932 H   0  0  0  0  0  0  0  0  0  0  0  0
   27.3386   50.5203    7.6116 H   0  0  0  0  0  0  0  0  0  0  0  0
   28.1441   53.0283    5.6739 H   0  0  0  0  0  0  0  0  0  0  0  0
   28.1653   51.9447    7.0435 H   0  0  0  0  0  0  0  0  0  0  0  0
   29.1369   54.2207    7.4334 H   0  0  0  0  0  0  0  0  0  0  0  0
   27.8525   53.6939    8.5524 H   0  0  0  0  0  0  0  0  0  0  0  0
   25.7747   55.9734    6.2513 H   0  0  0  0  0  0  0  0  0  0  0  0
   26.9167   54.9683    5.3320 H   0  0  0  0  0  0  0  0  0  0  0  0
   24.8818   53.7909    5.5041 H   0  0  0  0  0  0  0  0  0  0  0  0
   24.8193   54.0274    7.2224 H   0  0  0  0  0  0  0  0  0  0  0  0
   26.0810   55.3208    8.8961 H   0  0  0  0  0  0  0  0  0  0  0  0
   26.5703   56.8591    8.1640 H   0  0  0  0  0  0  0  0  0  0  0  0
   28.3000   55.0998    9.8467 H   0  0  0  0  0  0  0  0  0  0  0  0
   27.5622   56.6016   10.3502 H   0  0  0  0  0  0  0  0  0  0  0  0
   28.7817   56.6037    9.0989 H   0  0  0  0  0  0  0  0  0  0  0  0
  1  7  1  0  0  0  0
  1  6  1  0  0  0  0
  2  3  1  0  0  0  0
  2  1  2  0  0  0  0
  2 46  1  0  0  0  0
  3  5  1  0  0  0  0
  4  3  1  0  0  0  0
  5 27  1  6  0  0  0
  5  6  1  0  0  0  0
  7 12  1  0  0  0  0
  8  7  2  0  0  0  0
  8  9  1  0  0  0  0
  8 47  1  0  0  0  0
  9 10  2  0  0  0  0
  9 48  1  0  0  0  0
 10 11  1  0  0  0  0
 10 13  1  0  0  0  0
 11 49  1  0  0  0  0
 12 11  2  0  0  0  0
 12 50  1  0  0  0  0
 13 14  1  0  0  0  0
 14 15  1  0  0  0  0
 14 16  2  0  0  0  0
 17 15  1  0  0  0  0
 18 13  1  0  0  0  0
 19 15  1  1  0  0  0
 19 20  1  0  0  0  0
 19 23  1  0  0  0  0
 20 21  2  0  0  0  0
 20 51  1  0  0  0  0
 21 22  1  0  0  0  0
 21 25  1  0  0  0  0
 23 22  1  0  0  0  0
 24 23  1  0  0  0  0
 25 26  1  0  0  0  0
 25 52  1  0  0  0  0
 25 53  1  0  0  0  0
 26 54  1  0  0  0  0
 26 55  1  0  0  0  0
 26 56  1  0  0  0  0
 27 28  1  0  0  0  0
 29 27  1  6  0  0  0
 30 32  1  0  0  0  0
 30 29  1  0  0  0  0
 31 33  1  1  0  0  0
 31 30  1  0  0  0  0
 33 57  1  0  0  0  0
 33 58  1  0  0  0  0
 33 59  1  0  0  0  0
 34 31  1  0  0  0  0
 34 35  1  0  0  0  0
 35 37  2  0  0  0  0
 36 34  1  0  0  0  0
 37 29  1  0  0  0  0
 37 60  1  0  0  0  0
 38 39  1  0  0  0  0
 38 35  1  0  0  0  0
 39 40  1  0  0  0  0
 39 61  1  0  0  0  0
 39 62  1  0  0  0  0
 40 63  1  0  0  0  0
 40 64  1  0  0  0  0
 41 40  1  0  0  0  0
 41 44  1  0  0  0  0
 42 43  1  0  0  0  0
 42 41  1  0  0  0  0
 42 65  1  0  0  0  0
 42 66  1  0  0  0  0
 43 38  1  0  0  0  0
 43 67  1  0  0  0  0
 43 68  1  0  0  0  0
 44 45  1  0  0  0  0
 44 69  1  0  0  0  0
 44 70  1  0  0  0  0
 45 71  1  0  0  0  0
 45 72  1  0  0  0  0
 45 73  1  0  0  0  0
M  END
>  <REMARK>
 VINA RESULT:      -8.1      4.490     12.360
  8 active torsions:
  status: ('A' for Active; 'I' for Inactive)
    1  A    between atoms: C_2  and  C_3 
    2  A    between atoms: C_5  and  N_6 
       I    between atoms: N_6  and  C_8 
       I    between atoms: C_8  and  N_10 
    3  A    between atoms: N_10  and  C_12 
    4  A    between atoms: C_15  and  C_16 
    5  A    between atoms: C_20  and  N_21 
    6  A    between atoms: N_21  and  C_23 
    7  A    between atoms: C_30  and  N_31 
    8  A    between atoms: N_34  and  C_35 

>  <TORSDO>
F 8

$$$$
resistance_project/docking/5319283d3047ac55/Q9UM73_L1196M/docked/molecule_0012_out.pdbqt
 OpenBabel09232609203D

 73 77  0  0  1  0  0  0  0  0999 V2000
   31.0860   44.6950    8.3540 C   0  0  0  0  0  0  0  0  0  0  0  0
   31.3050   43.4530    8.3620 C   0  0  0  0  0  0  0  0  0  0  0  0
   32.5050   42.9550    8.5090 N   0  0  0  0  0  0  0  0  0  0  0  0
   32.5760   41.9370    8.5020 H   0  0  0  0  0  0  0  0  0  0  0  0
   33.5240   43.5530    8.6500 C   0  0  2  0  0  0  0  0  0  0  0  0
   32.8540   45.3420    8.5920 S   0  0  0  0  0  0  0  0  0  0  0  0
   29.9920   45.6670    8.2300 C   0  0  0  0  0  0  0  0  0  0  0  0
   30.2230   46.7030    7.3180 C   0  0  0  0  0  0  0  0  0  0  0  0
   29.2410   47.6580    7.1430 C   0  0  0  0  0  0  0  0  0  0  0  0
   28.0580   47.5890    7.8540 C   0  0  0  0  0  0  0  0  0  0  0  0
   27.8480   46.5600    8.7470 C   0  0  0  0  0  0  0  0  0  0  0  0
   28.8220   45.5740    8.9510 C   0  0  0  0  0  0  0  0  0  0  0  0
   27.1070   48.6180    7.6040 N   0  0  0  0  0  0  0  0  0  0  0  0
   25.7460   48.3620    7.3330 C   0  0  0  0  0  0  0  0  0  0  0  0
   24.8610   49.4520    7.2480 N   0  0  0  0  0  0  0  0  0  0  0  0
   25.2840   47.2020    7.1640 O   0  0  0  0  0  0  0  0  0  0  0  0
   25.2610   50.3870    7.3340 H   0  0  0  0  0  0  0  0  0  0  0  0
   27.4240   49.5860    7.6220 H   0  0  0  0  0  0  0  0  0  0  0  0
   23.4560   49.3620    7.0520 C   0  0  1  0  0  0  0  0  0  0  0  0
   22.6050   50.4230    7.2370 C   0  0  0  0  0  0  0  0  0  0  0  0
   21.3400   49.9560    6.9530 C   0  0  0  0  0  0  0  0  0  0  0  0
   21.4740   48.7110    6.6290 O   0  0  0  0  0  0  0  0  0  0  0  0
   22.7020   48.3140    6.6710 N   0  0  0  0  0  0  0  0  0  0  0  0
   23.0400   47.3760    6.4550 H   0  0  0  0  0  0  0  0  0  0  0  0
   20.1200   50.7880    7.0330 C   0  0  0  0  0  0  0  0  0  0  0  0
   20.0620   51.4230    8.4150 C   0  0  0  0  0  0  0  0  0  0  0  0
   34.9220   43.3690    8.8250 N   0  0  0  0  0  0  0  0  0  0  0  0
   35.2300   42.7200    9.5490 H   0  0  0  0  0  0  0  0  0  0  0  0
   35.9220   44.0270    8.0620 C   0  0  2  0  0  0  0  0  0  0  0  0
   37.0990   44.4400    8.5740 N   0  0  0  0  0  0  0  0  0  0  0  0
   38.0160   45.0630    7.8070 C   0  0  1  0  0  0  0  0  0  0  0  0
   37.2990   44.2770    9.5610 H   0  0  0  0  0  0  0  0  0  0  0  0
   39.3270   45.5230    8.3760 C   0  0  0  0  0  0  0  0  0  0  0  0
   37.7930   45.2970    6.5000 N   0  0  0  0  0  0  0  0  0  0  0  0
   36.6270   44.8920    5.9790 C   0  0  0  0  0  0  0  0  0  0  0  0
   38.4890   45.7690    5.9250 H   0  0  0  0  0  0  0  0  0  0  0  0
   35.6720   44.2520    6.7400 C   0  0  0  0  0  0  0  0  0  0  0  0
   36.3740   45.1400    4.5810 N   0  0  0  0  0  0  0  0  0  0  0  0
   36.6690   46.4230    4.0040 C   0  0  0  0  0  0  0  0  0  0  0  0
   35.5170   46.8550    3.1320 C   0  0  0  0  0  0  0  0  0  0  0  0
   35.0360   45.8390    2.2440 N   0  0  0  0  0  0  0  0  0  0  0  0
   35.7120   44.5720    2.3550 C   0  0  0  0  0  0  0  0  0  0  0  0
   35.8110   44.0690    3.7620 C   0  0  0  0  0  0  0  0  0  0  0  0
   33.6110   45.7410    2.1460 C   0  0  0  0  0  0  0  0  0  0  0  0
   33.1430   45.3280    0.7680 C   0  0  0  0  0  0  0  0  0  0  0  0
   30.5086   42.8066    8.2485 H   0  0  0  0  0  0  0  0  0  0  0  0
   31.1073   46.7522    6.7882 H   0  0  0  0  0  0  0  0  0  0  0  0
   29.3919   48.4302    6.4752 H   0  0  0  0  0  0  0  0  0  0  0  0
   26.9610   46.5154    9.2725 H   0  0  0  0  0  0  0  0  0  0  0  0
   28.6680   44.8031    9.6196 H   0  0  0  0  0  0  0  0  0  0  0  0
   22.8612   51.3788    7.5300 H   0  0  0  0  0  0  0  0  0  0  0  0
   19.2551   50.1770    6.8793 H   0  0  0  0  0  0  0  0  0  0  0  0
   20.1427   51.5476    6.2798 H   0  0  0  0  0  0  0  0  0  0  0  0
   20.0396   50.6550    9.1597 H   0  0  0  0  0  0  0  0  0  0  0  0
   19.1798   52.0232    8.4950 H   0  0  0  0  0  0  0  0  0  0  0  0
   20.9258   52.0372    8.5618 H   0  0  0  0  0  0  0  0  0  0  0  0
   39.9056   45.9899    7.6065 H   0  0  0  0  0  0  0  0  0  0  0  0
   39.8623   44.6817    8.7639 H   0  0  0  0  0  0  0  0  0  0  0  0
   39.1474   46.2253    9.1631 H   0  0  0  0  0  0  0  0  0  0  0  0
   34.7817   43.9478    6.3160 H   0  0  0  0  0  0  0  0  0  0  0  0
   36.8152   47.1405    4.7842 H   0  0  0  0  0  0  0  0  0  0  0  0
   37.5588   46.3541    3.4137 H   0  0  0  0  0  0  0  0  0  0  0  0
   34.7097   47.1543    3.7673 H   0  0  0  0  0  0  0  0  0  0  0  0
   35.8802   47.6520    2.5174 H   0  0  0  0  0  0  0  0  0  0  0  0
   36.7020   44.6809    1.9638 H   0  0  0  0  0  0  0  0  0  0  0  0
   35.1347   43.8581    1.8054 H   0  0  0  0  0  0  0  0  0  0  0  0
   36.4484   43.2103    3.7975 H   0  0  0  0  0  0  0  0  0  0  0  0
   34.8453   43.7878    4.1271 H   0  0  0  0  0  0  0  0  0  0  0  0
   33.2691   45.0156    2.8544 H   0  0  0  0  0  0  0  0  0  0  0  0
   33.2078   46.7121    2.3445 H   0  0  0  0  0  0  0  0  0  0  0  0
   33.5294   44.3575    0.5361 H   0  0  0  0  0  0  0  0  0  0  0  0
   33.4951   46.0341    0.0453 H   0  0  0  0  0  0  0  0  0  0  0  0
   32.0735   45.3003    0.7480 H   0  0  0  0  0  0  0  0  0  0  0  0
  1  2  2  0  0  0  0
  1  6  1  0  0  0  0
  2  3  1  0  0  0  0
  2 46  1  0  0  0  0
  3  5  1  0  0  0  0
  4  3  1  0  0  0  0
  5 27  1  6  0  0  0
  6  5  1  0  0  0  0
  7  1  1  0  0  0  0
  7 12  2  0  0  0  0
  8  7  1  0  0  0  0
  8 47  1  0  0  0  0
  9  8  2  0  0  0  0
  9 10  1  0  0  0  0
  9 48  1  0  0  0  0
 10 11  2  0  0  0  0
 11 12  1  0  0  0  0
 11 49  1  0  0  0  0
 12 50  1  0  0  0  0
 13 18  1  0  0  0  0
 13 10  1  0  0  0  0
 14 13  1  0  0  0  0
 15 14  1  0  0  0  0
 15 17  1  0  0  0  0
 16 14  2  0  0  0  0
 19 20  1  0  0  0  0
 19 15  1  6  0  0  0
 20 51  1  0  0  0  0
 21 25  1  0  0  0  0
 21 20  2  0  0  0  0
 22 23  1  0  0  0  0
 22 21  1  0  0  0  0
 23 19  1  0  0  0  0
 24 23  1  0  0  0  0
 25 26  1  0  0  0  0
 25 52  1  0  0  0  0
 25 53  1  0  0  0  0
 26 54  1  0  0  0  0
 26 55  1  0  0  0  0
 26 56  1  0  0  0  0
 27 28  1  0  0  0  0
 29 30  1  0  0  0  0
 29 27  1  1  0  0  0
 30 32  1  0  0  0  0
 31 33  1  6  0  0  0
 31 30  1  0  0  0  0
 33 57  1  0  0  0  0
 33 58  1  0  0  0  0
 33 59  1  0  0  0  0
 34 31  1  0  0  0  0
 35 34  1  0  0  0  0
 35 37  2  0  0  0  0
 36 34  1  0  0  0  0
 37 29  1  0  0  0  0
 37 60  1  0  0  0  0
 38 35  1  0  0  0  0
 39 38  1  0  0  0  0
 39 61  1  0  0  0  0
 39 62  1  0  0  0  0
 40 39  1  0  0  0  0
 40 63  1  0  0  0  0
 40 64  1  0  0  0  0
 41 42  1  0  0  0  0
 41 40  1  0  0  0  0
 42 43  1  0  0  0  0
 42 65  1  0  0  0  0
 42 66  1  0  0  0  0
 43 38  1  0  0  0  0
 43 67  1  0  0  0  0
 43 68  1  0  0  0  0
 44 41  1  0  0  0  0
 44 69  1  0  0  0  0
 44 70  1  0  0  0  0
 45 44  1  0  0  0  0
 45 71  1  0  0  0  0
 45 72  1  0  0  0  0
 45 73  1  0  0  0  0
M  END
>  <REMARK>
 VINA RESULT:      -8.0      1.779      2.138
  8 active torsions:
  status: ('A' for Active; 'I' for Inactive)
    1  A    between atoms: C_2  and  C_3 
    2  A    between atoms: C_5  and  N_6 
       I    between atoms: N_6  and  C_8 
       I    between atoms: C_8  and  N_10 
    3  A    between atoms: N_10  and  C_12 
    4  A    between atoms: C_15  and  C_16 
    5  A    between atoms: C_20  and  N_21 
    6  A    between atoms: N_21  and  C_23 
    7  A    between atoms: C_30  and  N_31 
    8  A    between atoms: N_34  and  C_35 

>  <TORSDO>
F 8

$$$$
resistance_project/docking/5319283d3047ac55/Q9UM73_L1196M/docked/molecule_0012_out.pdbqt
 OpenBabel09232609203D

 73 77  0  0  1  0  0  0  0  0999 V2000
   29.4200   46.4860    8.0860 C   0  0  0  0  0  0  0  0  0  0  0  0
   28.4790   47.0240    8.7300 C   0  0  0  0  0  0  0  0  0  0  0  0
   27.8360   48.0730    8.2860 N   0  0  0  0  0  0  0  0  0  0  0  0
   27.0900   48.4320    8.8820 H   0  0  0  0  0  0  0  0  0  0  0  0
   28.0210   48.6550    7.2650 C   0  0  2  0  0  0  0  0  0  0  0  0
   29.4610   47.6150    6.5610 S   0  0  0  0  0  0  0  0  0  0  0  0
   30.3760   45.3740    8.1650 C   0  0  0  0  0  0  0  0  0  0  0  0
   31.5620   45.5620    7.4480 C   0  0  0  0  0  0  0  0  0  0  0  0
   32.5130   44.5620    7.4720 C   0  0  0  0  0  0  0  0  0  0  0  0
   32.2950   43.4010    8.1890 C   0  0  0  0  0  0  0  0  0  0  0  0
   31.1190   43.2330    8.8890 C   0  0  0  0  0  0  0  0  0  0  0  0
   30.1320   44.2270    8.8880 C   0  0  0  0  0  0  0  0  0  0  0  0
   33.3330   42.4290    8.1540 N   0  0  0  0  0  0  0  0  0  0  0  0
   33.9400   41.9050    9.3150 C   0  0  0  0  0  0  0  0  0  0  0  0
   34.8510   40.8420    9.1770 N   0  0  0  0  0  0  0  0  0  0  0  0
   33.7050   42.3440   10.4720 O   0  0  0  0  0  0  0  0  0  0  0  0
   35.0710   40.5340    8.2290 H   0  0  0  0  0  0  0  0  0  0  0  0
   33.6540   42.0930    7.2460 H   0  0  0  0  0  0  0  0  0  0  0  0
   35.4930   40.1590   10.2460 C   0  0  1  0  0  0  0  0  0  0  0  0
   34.8050   39.4730   11.2160 C   0  0  0  0  0  0  0  0  0  0  0  0
   35.7560   38.9510   12.0660 C   0  0  0  0  0  0  0  0  0  0  0  0
   36.9050   39.3230   11.6010 O   0  0  0  0  0  0  0  0  0  0  0  0
   36.8020   40.0350   10.5290 N   0  0  0  0  0  0  0  0  0  0  0  0
   37.5740   40.4330    9.9940 H   0  0  0  0  0  0  0  0  0  0  0  0
   35.4350   38.1380   13.2570 C   0  0  0  0  0  0  0  0  0  0  0  0
   36.5530   37.1250   13.4620 C   0  0  0  0  0  0  0  0  0  0  0  0
   27.5580   49.7580    6.4980 N   0  0  0  0  0  0  0  0  0  0  0  0
   26.7370   49.6170    5.9090 H   0  0  0  0  0  0  0  0  0  0  0  0
   28.1580   51.0440    6.4940 C   0  0  2  0  0  0  0  0  0  0  0  0
   29.4390   51.2670    6.1340 N   0  0  0  0  0  0  0  0  0  0  0  0
   29.9640   52.5080    6.1500 C   0  0  1  0  0  0  0  0  0  0  0  0
   30.0210   50.4810    5.8450 H   0  0  0  0  0  0  0  0  0  0  0  0
   31.3890   52.7580    5.7500 C   0  0  0  0  0  0  0  0  0  0  0  0
   29.2300   53.5740    6.5240 N   0  0  0  0  0  0  0  0  0  0  0  0
   27.9570   53.3660    6.8830 C   0  0  0  0  0  0  0  0  0  0  0  0
   29.6330   54.5110    6.5340 H   0  0  0  0  0  0  0  0  0  0  0  0
   27.3950   52.1070    6.8770 C   0  0  0  0  0  0  0  0  0  0  0  0
   27.1620   54.4980    7.2900 N   0  0  0  0  0  0  0  0  0  0  0  0
   27.0590   54.8560    8.6780 C   0  0  0  0  0  0  0  0  0  0  0  0
   25.6190   55.1540    9.0130 C   0  0  0  0  0  0  0  0  0  0  0  0
   24.9610   56.0100    8.0710 N   0  0  0  0  0  0  0  0  0  0  0  0
   25.7740   56.4150    6.9540 C   0  0  0  0  0  0  0  0  0  0  0  0
   26.4610   55.2750    6.2700 C   0  0  0  0  0  0  0  0  0  0  0  0
   23.6290   55.6180    7.7210 C   0  0  0  0  0  0  0  0  0  0  0  0
   22.6070   56.7000    7.9940 C   0  0  0  0  0  0  0  0  0  0  0  0
   28.2062   46.6221    9.6405 H   0  0  0  0  0  0  0  0  0  0  0  0
   31.7226   46.4295    6.9126 H   0  0  0  0  0  0  0  0  0  0  0  0
   33.3949   44.6824    6.9497 H   0  0  0  0  0  0  0  0  0  0  0  0
   30.9638   42.3626    9.4212 H   0  0  0  0  0  0  0  0  0  0  0  0
   29.2512   44.1041    9.4116 H   0  0  0  0  0  0  0  0  0  0  0  0
   33.7812   39.3691   11.2932 H   0  0  0  0  0  0  0  0  0  0  0  0
   34.5071   37.6268   13.1064 H   0  0  0  0  0  0  0  0  0  0  0  0
   35.3455   38.7665   14.1183 H   0  0  0  0  0  0  0  0  0  0  0  0
   36.6335   36.5024   12.5955 H   0  0  0  0  0  0  0  0  0  0  0  0
   36.3337   36.5199   14.3168 H   0  0  0  0  0  0  0  0  0  0  0  0
   37.4775   37.6407   13.6178 H   0  0  0  0  0  0  0  0  0  0  0  0
   31.8510   51.8318    5.4787 H   0  0  0  0  0  0  0  0  0  0  0  0
   31.9188   53.1938    6.5712 H   0  0  0  0  0  0  0  0  0  0  0  0
   31.4130   53.4266    4.9150 H   0  0  0  0  0  0  0  0  0  0  0  0
   26.4114   51.9713    7.1582 H   0  0  0  0  0  0  0  0  0  0  0  0
   27.6566   55.7229    8.8683 H   0  0  0  0  0  0  0  0  0  0  0  0
   27.4062   54.0447    9.2831 H   0  0  0  0  0  0  0  0  0  0  0  0
   25.0855   54.2274    9.0538 H   0  0  0  0  0  0  0  0  0  0  0  0
   25.6224   55.6725    9.9489 H   0  0  0  0  0  0  0  0  0  0  0  0
   25.1477   56.9096    6.2412 H   0  0  0  0  0  0  0  0  0  0  0  0
   26.5384   57.0576    7.3383 H   0  0  0  0  0  0  0  0  0  0  0  0
   27.1612   55.6496    5.5529 H   0  0  0  0  0  0  0  0  0  0  0  0
   25.7484   54.6625    5.7582 H   0  0  0  0  0  0  0  0  0  0  0  0
   23.6055   55.3813    6.6778 H   0  0  0  0  0  0  0  0  0  0  0  0
   23.3728   54.7736    8.3262 H   0  0  0  0  0  0  0  0  0  0  0  0
   22.8341   57.5624    7.4028 H   0  0  0  0  0  0  0  0  0  0  0  0
   22.6330   56.9617    9.0312 H   0  0  0  0  0  0  0  0  0  0  0  0
   21.6313   56.3410    7.7411 H   0  0  0  0  0  0  0  0  0  0  0  0
  1  7  1  0  0  0  0
  1  2  2  0  0  0  0
  2 46  1  0  0  0  0
  3  2  1  0  0  0  0
  3  4  1  0  0  0  0
  5 27  1  1  0  0  0
  5  3  1  0  0  0  0
  6  5  1  0  0  0  0
  6  1  1  0  0  0  0
  7 12  2  0  0  0  0
  8  9  2  0  0  0  0
  8  7  1  0  0  0  0
  8 47  1  0  0  0  0
  9 10  1  0  0  0  0
  9 48  1  0  0  0  0
 10 11  2  0  0  0  0
 11 49  1  0  0  0  0
 12 11  1  0  0  0  0
 12 50  1  0  0  0  0
 13 10  1  0  0  0  0
 13 14  1  0  0  0  0
 14 16  2  0  0  0  0
 15 14  1  0  0  0  0
 17 15  1  0  0  0  0
 18 13  1  0  0  0  0
 19 15  1  6  0  0  0
 19 23  1  0  0  0  0
 19 20  1  0  0  0  0
 20 21  2  0  0  0  0
 20 51  1  0  0  0  0
 21 25  1  0  0  0  0
 22 21  1  0  0  0  0
 23 22  1  0  0  0  0
 24 23  1  0  0  0  0
 25 26  1  0  0  0  0
 25 52  1  0  0  0  0
 25 53  1  0  0  0  0
 26 54  1  0  0  0  0
 26 55  1  0  0  0  0
 26 56  1  0  0  0  0
 28 27  1  0  0  0  0
 29 27  1  1  0  0  0
 29 37  1  0  0  0  0
 30 31  1  0  0  0  0
 30 29  1  0  0  0  0
 31 33  1  6  0  0  0
 31 34  1  0  0  0  0
 32 30  1  0  0  0  0
 33 57  1  0  0  0  0
 33 58  1  0  0  0  0
 33 59  1  0  0  0  0
 34 36  1  0  0  0  0
 34 35  1  0  0  0  0
 35 38  1  0  0  0  0
 37 35  2  0  0  0  0
 37 60  1  0  0  0  0
 38 39  1  0  0  0  0
 39 40  1  0  0  0  0
 39 61  1  0  0  0  0
 39 62  1  0  0  0  0
 40 63  1  0  0  0  0
 40 64  1  0  0  0  0
 41 40  1  0  0  0  0
 42 41  1  0  0  0  0
 42 65  1  0  0  0  0
 42 66  1  0  0  0  0
 43 42  1  0  0  0  0
 43 38  1  0  0  0  0
 43 67  1  0  0  0  0
 43 68  1  0  0  0  0
 44 45  1  0  0  0  0
 44 41  1  0  0  0  0
 44 69  1  0  0  0  0
 44 70  1  0  0  0  0
 45 71  1  0  0  0  0
 45 72  1  0  0  0  0
 45 73  1  0  0  0  0
M  END
>  <REMARK>
 VINA RESULT:      -8.0      4.914     12.056
  8 active torsions:
  status: ('A' for Active; 'I' for Inactive)
    1  A    between atoms: C_2  and  C_3 
    2  A    between atoms: C_5  and  N_6 
       I    between atoms: N_6  and  C_8 
       I    between atoms: C_8  and  N_10 
    3  A    between atoms: N_10  and  C_12 
    4  A    between atoms: C_15  and  C_16 
    5  A    between atoms: C_20  and  N_21 
    6  A    between atoms: N_21  and  C_23 
    7  A    between atoms: C_30  and  N_31 
    8  A    between atoms: N_34  and  C_35 

>  <TORSDO>
F 8

$$$$
resistance_project/docking/5319283d3047ac55/Q9UM73_L1196M/docked/molecule_0012_out.pdbqt
 OpenBabel09232609203D

 73 77  0  0  1  0  0  0  0  0999 V2000
   31.1580   46.9960    7.5990 C   0  0  0  0  0  0  0  0  0  0  0  0
   30.0910   47.6180    7.3450 C   0  0  0  0  0  0  0  0  0  0  0  0
   30.0560   48.9160    7.1910 N   0  0  0  0  0  0  0  0  0  0  0  0
   29.1440   49.3240    6.9870 H   0  0  0  0  0  0  0  0  0  0  0  0
   30.9690   49.6760    7.2600 C   0  0  2  0  0  0  0  0  0  0  0  0
   32.3800   48.4460    7.6440 S   0  0  0  0  0  0  0  0  0  0  0  0
   31.6650   45.6390    7.8400 C   0  0  0  0  0  0  0  0  0  0  0  0
   32.8930   45.3510    7.2340 C   0  0  0  0  0  0  0  0  0  0  0  0
   33.4390   44.0960    7.4130 C   0  0  0  0  0  0  0  0  0  0  0  0
   32.7840   43.1460    8.1740 C   0  0  0  0  0  0  0  0  0  0  0  0
   31.5740   43.4480    8.7630 C   0  0  0  0  0  0  0  0  0  0  0  0
   30.9910   44.7120    8.6030 C   0  0  0  0  0  0  0  0  0  0  0  0
   33.4250   41.8830    8.3010 N   0  0  0  0  0  0  0  0  0  0  0  0
   34.2410   41.5390    9.3990 C   0  0  0  0  0  0  0  0  0  0  0  0
   34.7070   40.2150    9.5030 N   0  0  0  0  0  0  0  0  0  0  0  0
   34.5740   42.3610   10.2940 O   0  0  0  0  0  0  0  0  0  0  0  0
   34.4730   39.5760    8.7420 H   0  0  0  0  0  0  0  0  0  0  0  0
   33.2880   41.1920    7.5630 H   0  0  0  0  0  0  0  0  0  0  0  0
   35.4760   39.6910   10.5770 C   0  0  1  0  0  0  0  0  0  0  0  0
   34.9400   38.9140   11.5730 C   0  0  0  0  0  0  0  0  0  0  0  0
   35.9800   38.6000   12.4190 C   0  0  0  0  0  0  0  0  0  0  0  0
   37.0350   39.1660   11.9280 O   0  0  0  0  0  0  0  0  0  0  0  0
   36.7890   39.8200   10.8420 N   0  0  0  0  0  0  0  0  0  0  0  0
   37.4680   40.3400   10.2860 H   0  0  0  0  0  0  0  0  0  0  0  0
   35.8300   37.7720   13.6350 C   0  0  0  0  0  0  0  0  0  0  0  0
   36.9160   36.7040   13.6250 C   0  0  0  0  0  0  0  0  0  0  0  0
   31.2950   51.0560    7.1610 N   0  0  0  0  0  0  0  0  0  0  0  0
   32.2820   51.3110    7.1310 H   0  0  0  0  0  0  0  0  0  0  0  0
   30.3420   52.1050    7.1010 C   0  0  2  0  0  0  0  0  0  0  0  0
   30.3540   53.1720    7.9270 N   0  0  0  0  0  0  0  0  0  0  0  0
   29.4240   54.1420    7.8310 C   0  0  1  0  0  0  0  0  0  0  0  0
   31.0820   53.2450    8.6380 H   0  0  0  0  0  0  0  0  0  0  0  0
   29.4360   55.3300    8.7500 C   0  0  0  0  0  0  0  0  0  0  0  0
   28.4460   54.0860    6.9070 N   0  0  0  0  0  0  0  0  0  0  0  0
   28.4220   53.0320    6.0800 C   0  0  0  0  0  0  0  0  0  0  0  0
   27.7440   54.8220    6.8390 H   0  0  0  0  0  0  0  0  0  0  0  0
   29.3610   52.0250    6.1560 C   0  0  0  0  0  0  0  0  0  0  0  0
   27.3780   52.9570    5.0880 N   0  0  0  0  0  0  0  0  0  0  0  0
   27.6790   53.1550    3.6970 C   0  0  0  0  0  0  0  0  0  0  0  0
   26.6440   54.0660    3.0860 C   0  0  0  0  0  0  0  0  0  0  0  0
   25.2920   53.7280    3.4160 N   0  0  0  0  0  0  0  0  0  0  0  0
   25.1520   52.5970    4.2970 C   0  0  0  0  0  0  0  0  0  0  0  0
   26.0100   52.6810    5.5210 C   0  0  0  0  0  0  0  0  0  0  0  0
   24.4500   54.8380    3.7440 C   0  0  0  0  0  0  0  0  0  0  0  0
   23.0890   54.4140    4.2510 C   0  0  0  0  0  0  0  0  0  0  0  0
   29.2131   47.0830    7.2554 H   0  0  0  0  0  0  0  0  0  0  0  0
   33.3799   46.0615    6.6656 H   0  0  0  0  0  0  0  0  0  0  0  0
   34.3443   43.8649    6.9748 H   0  0  0  0  0  0  0  0  0  0  0  0
   31.0913   42.7330    9.3294 H   0  0  0  0  0  0  0  0  0  0  0  0
   30.0858   44.9407    9.0427 H   0  0  0  0  0  0  0  0  0  0  0  0
   33.9545   38.6232   11.6688 H   0  0  0  0  0  0  0  0  0  0  0  0
   34.8661   37.3075   13.6395 H   0  0  0  0  0  0  0  0  0  0  0  0
   35.9216   38.3820   14.5093 H   0  0  0  0  0  0  0  0  0  0  0  0
   36.8148   36.1006   12.7472 H   0  0  0  0  0  0  0  0  0  0  0  0
   36.8185   36.0880   14.4944 H   0  0  0  0  0  0  0  0  0  0  0  0
   37.8777   37.1732   13.6263 H   0  0  0  0  0  0  0  0  0  0  0  0
   28.6184   55.9765    8.5079 H   0  0  0  0  0  0  0  0  0  0  0  0
   30.3574   55.8614    8.6339 H   0  0  0  0  0  0  0  0  0  0  0  0
   29.3407   54.9984    9.7628 H   0  0  0  0  0  0  0  0  0  0  0  0
   29.3223   51.2229    5.5078 H   0  0  0  0  0  0  0  0  0  0  0  0
   28.6475   53.5997    3.6010 H   0  0  0  0  0  0  0  0  0  0  0  0
   27.6690   52.2122    3.1911 H   0  0  0  0  0  0  0  0  0  0  0  0
   26.8326   55.0629    3.4260 H   0  0  0  0  0  0  0  0  0  0  0  0
   26.7347   53.9641    2.0247 H   0  0  0  0  0  0  0  0  0  0  0  0
   25.4186   51.7125    3.7570 H   0  0  0  0  0  0  0  0  0  0  0  0
   24.1345   52.5808    4.6275 H   0  0  0  0  0  0  0  0  0  0  0  0
   25.9767   51.7535    6.0535 H   0  0  0  0  0  0  0  0  0  0  0  0
   25.6598   53.4554    6.1711 H   0  0  0  0  0  0  0  0  0  0  0  0
   24.3166   55.4364    2.8670 H   0  0  0  0  0  0  0  0  0  0  0  0
   24.9296   55.3843    4.5291 H   0  0  0  0  0  0  0  0  0  0  0  0
   22.5799   53.8631    3.4880 H   0  0  0  0  0  0  0  0  0  0  0  0
   22.5173   55.2817    4.5062 H   0  0  0  0  0  0  0  0  0  0  0  0
   23.2074   53.7973    5.1174 H   0  0  0  0  0  0  0  0  0  0  0  0
  1  6  1  0  0  0  0
  1  7  1  0  0  0  0
  2  1  2  0  0  0  0
  2 46  1  0  0  0  0
  3  5  1  0  0  0  0
  3  2  1  0  0  0  0
  4  3  1  0  0  0  0
  5 27  1  1  0  0  0
  5  6  1  0  0  0  0
  7 12  2  0  0  0  0
  8  9  2  0  0  0  0
  8  7  1  0  0  0  0
  8 47  1  0  0  0  0
  9 10  1  0  0  0  0
  9 48  1  0  0  0  0
 10 13  1  0  0  0  0
 10 11  2  0  0  0  0
 11 49  1  0  0  0  0
 12 11  1  0  0  0  0
 12 50  1  0  0  0  0
 13 14  1  0  0  0  0
 14 15  1  0  0  0  0
 14 16  2  0  0  0  0
 17 15  1  0  0  0  0
 18 13  1  0  0  0  0
 19 15  1  6  0  0  0
 19 23  1  0  0  0  0
 19 20  1  0  0  0  0
 20 21  2  0  0  0  0
 20 51  1  0  0  0  0
 21 25  1  0  0  0  0
 22 21  1  0  0  0  0
 23 22  1  0  0  0  0
 24 23  1  0  0  0  0
 25 52  1  0  0  0  0
 25 53  1  0  0  0  0
 26 25  1  0  0  0  0
 26 54  1  0  0  0  0
 26 55  1  0  0  0  0
 26 56  1  0  0  0  0
 28 27  1  0  0  0  0
 29 27  1  1  0  0  0
 29 30  1  0  0  0  0
 30 32  1  0  0  0  0
 31 30  1  0  0  0  0
 31 33  1  6  0  0  0
 33 57  1  0  0  0  0
 33 58  1  0  0  0  0
 33 59  1  0  0  0  0
 34 31  1  0  0  0  0
 35 37  2  0  0  0  0
 35 34  1  0  0  0  0
 36 34  1  0  0  0  0
 37 29  1  0  0  0  0
 37 60  1  0  0  0  0
 38 43  1  0  0  0  0
 38 35  1  0  0  0  0
 39 38  1  0  0  0  0
 39 61  1  0  0  0  0
 39 62  1  0  0  0  0
 40 41  1  0  0  0  0
 40 39  1  0  0  0  0
 40 63  1  0  0  0  0
 40 64  1  0  0  0  0
 41 44  1  0  0  0  0
 41 42  1  0  0  0  0
 42 43  1  0  0  0  0
 42 65  1  0  0  0  0
 42 66  1  0  0  0  0
 43 67  1  0  0  0  0
 43 68  1  0  0  0  0
 44 45  1  0  0  0  0
 44 69  1  0  0  0  0
 44 70  1  0  0  0  0
 45 71  1  0  0  0  0
 45 72  1  0  0  0  0
 45 73  1  0  0  0  0
M  END
>  <REMARK>
 VINA RESULT:      -7.9      5.065     11.680
  8 active torsions:
  status: ('A' for Active; 'I' for Inactive)
    1  A    between atoms: C_2  and  C_3 
    2  A    between atoms: C_5  and  N_6 
       I    between atoms: N_6  and  C_8 
       I    between atoms: C_8  and  N_10 
    3  A    between atoms: N_10  and  C_12 
    4  A    between atoms: C_15  and  C_16 
    5  A    between atoms: C_20  and  N_21 
    6  A    between atoms: N_21  and  C_23 
    7  A    between atoms: C_30  and  N_31 
    8  A    between atoms: N_34  and  C_35 

>  <TORSDO>
F 8

$$$$
resistance_project/docking/5319283d3047ac55/Q9UM73_L1196M/docked/molecule_0012_out.pdbqt
 OpenBabel09232609203D

 73 77  0  0  1  0  0  0  0  0999 V2000
   29.2890   46.2990    8.0330 C   0  0  0  0  0  0  0  0  0  0  0  0
   28.1560   46.3190    8.5850 C   0  0  0  0  0  0  0  0  0  0  0  0
   27.2580   47.2300    8.3100 N   0  0  0  0  0  0  0  0  0  0  0  0
   26.3720   47.1580    8.8100 H   0  0  0  0  0  0  0  0  0  0  0  0
   27.3580   48.1320    7.5420 C   0  0  2  0  0  0  0  0  0  0  0  0
   29.1310   47.8160    6.9040 S   0  0  0  0  0  0  0  0  0  0  0  0
   30.5420   45.5330    8.0130 C   0  0  0  0  0  0  0  0  0  0  0  0
   30.3990   44.1600    8.2440 C   0  0  0  0  0  0  0  0  0  0  0  0
   31.5310   43.3690    8.2410 C   0  0  0  0  0  0  0  0  0  0  0  0
   32.7760   43.9250    8.0140 C   0  0  0  0  0  0  0  0  0  0  0  0
   32.8970   45.2790    7.7880 C   0  0  0  0  0  0  0  0  0  0  0  0
   31.7700   46.1120    7.7840 C   0  0  0  0  0  0  0  0  0  0  0  0
   33.8820   43.0300    8.0290 N   0  0  0  0  0  0  0  0  0  0  0  0
   34.2540   42.2820    9.1660 C   0  0  0  0  0  0  0  0  0  0  0  0
   35.2680   41.3160    9.0340 N   0  0  0  0  0  0  0  0  0  0  0  0
   33.7210   42.4370   10.2970 O   0  0  0  0  0  0  0  0  0  0  0  0
   35.7270   41.2410    8.1240 H   0  0  0  0  0  0  0  0  0  0  0  0
   34.4310   42.9230    7.1770 H   0  0  0  0  0  0  0  0  0  0  0  0
   35.7100   40.4350   10.0580 C   0  0  1  0  0  0  0  0  0  0  0  0
   34.8520   39.7890   10.9110 C   0  0  0  0  0  0  0  0  0  0  0  0
   35.6400   39.0340   11.7520 C   0  0  0  0  0  0  0  0  0  0  0  0
   36.8650   39.2450   11.3920 O   0  0  0  0  0  0  0  0  0  0  0  0
   36.9580   40.0620   10.3970 N   0  0  0  0  0  0  0  0  0  0  0  0
   37.8210   40.3700    9.9500 H   0  0  0  0  0  0  0  0  0  0  0  0
   35.1050   38.1790   12.8330 C   0  0  0  0  0  0  0  0  0  0  0  0
   36.2740   37.4940   13.5260 C   0  0  0  0  0  0  0  0  0  0  0  0
   26.6480   49.2460    7.0150 N   0  0  0  0  0  0  0  0  0  0  0  0
   25.7420   49.0700    6.5800 H   0  0  0  0  0  0  0  0  0  0  0  0
   27.1130   50.5860    7.0500 C   0  0  2  0  0  0  0  0  0  0  0  0
   26.4150   51.6020    7.5990 N   0  0  0  0  0  0  0  0  0  0  0  0
   26.9000   52.8590    7.6070 C   0  0  2  0  0  0  0  0  0  0  0  0
   25.5040   51.4140    8.0170 H   0  0  0  0  0  0  0  0  0  0  0  0
   26.1250   53.9920    8.2170 C   0  0  0  0  0  0  0  0  0  0  0  0
   28.0990   53.1510    7.0670 N   0  0  0  0  0  0  0  0  0  0  0  0
   28.8010   52.1510    6.5190 C   0  0  0  0  0  0  0  0  0  0  0  0
   28.4600   54.1040    7.0750 H   0  0  0  0  0  0  0  0  0  0  0  0
   28.3300   50.8550    6.4970 C   0  0  0  0  0  0  0  0  0  0  0  0
   30.0850   52.4500    5.9340 N   0  0  0  0  0  0  0  0  0  0  0  0
   30.5370   53.8100    5.8260 C   0  0  0  0  0  0  0  0  0  0  0  0
   31.1190   54.0360    4.4530 C   0  0  0  0  0  0  0  0  0  0  0  0
   32.0260   53.0140    4.0220 N   0  0  0  0  0  0  0  0  0  0  0  0
   32.2050   51.9340    4.9570 C   0  0  0  0  0  0  0  0  0  0  0  0
   30.9170   51.3510    5.4510 C   0  0  0  0  0  0  0  0  0  0  0  0
   31.8710   52.5980    2.6610 C   0  0  0  0  0  0  0  0  0  0  0  0
   31.1520   53.6220    1.8120 C   0  0  0  0  0  0  0  0  0  0  0  0
   27.9283   45.5902    9.2793 H   0  0  0  0  0  0  0  0  0  0  0  0
   29.4681   43.7478    8.4129 H   0  0  0  0  0  0  0  0  0  0  0  0
   31.4467   42.3544    8.4096 H   0  0  0  0  0  0  0  0  0  0  0  0
   33.8306   45.6853    7.6193 H   0  0  0  0  0  0  0  0  0  0  0  0
   31.8577   47.1263    7.6149 H   0  0  0  0  0  0  0  0  0  0  0  0
   33.8222   39.8552   10.9209 H   0  0  0  0  0  0  0  0  0  0  0  0
   34.4479   37.4426   12.4197 H   0  0  0  0  0  0  0  0  0  0  0  0
   34.5579   38.7729   13.5351 H   0  0  0  0  0  0  0  0  0  0  0  0
   36.8135   36.9034   12.8154 H   0  0  0  0  0  0  0  0  0  0  0  0
   35.9053   36.8630   14.3075 H   0  0  0  0  0  0  0  0  0  0  0  0
   36.9251   38.2340   13.9424 H   0  0  0  0  0  0  0  0  0  0  0  0
   26.6834   54.8995    8.1192 H   0  0  0  0  0  0  0  0  0  0  0  0
   25.9528   53.7891    9.2534 H   0  0  0  0  0  0  0  0  0  0  0  0
   25.1868   54.0945    7.7129 H   0  0  0  0  0  0  0  0  0  0  0  0
   28.8896   50.1009    6.0689 H   0  0  0  0  0  0  0  0  0  0  0  0
   29.7116   54.4738    5.9777 H   0  0  0  0  0  0  0  0  0  0  0  0
   31.2854   53.9982    6.5672 H   0  0  0  0  0  0  0  0  0  0  0  0
   30.3128   54.0863    3.7513 H   0  0  0  0  0  0  0  0  0  0  0  0
   31.6824   54.9442    4.5045 H   0  0  0  0  0  0  0  0  0  0  0  0
   32.7547   52.3019    5.7981 H   0  0  0  0  0  0  0  0  0  0  0  0
   32.7256   51.1545    4.4411 H   0  0  0  0  0  0  0  0  0  0  0  0
   31.1106   50.6637    6.2479 H   0  0  0  0  0  0  0  0  0  0  0  0
   30.4195   50.8238    4.6640 H   0  0  0  0  0  0  0  0  0  0  0  0
   32.8413   52.4283    2.2430 H   0  0  0  0  0  0  0  0  0  0  0  0
   31.2774   51.7077    2.6625 H   0  0  0  0  0  0  0  0  0  0  0  0
   31.7203   54.5283    1.7887 H   0  0  0  0  0  0  0  0  0  0  0  0
   30.1864   53.8171    2.2298 H   0  0  0  0  0  0  0  0  0  0  0  0
   31.0405   53.2452    0.8168 H   0  0  0  0  0  0  0  0  0  0  0  0
  1  2  2  0  0  0  0
  2 46  1  0  0  0  0
  3  2  1  0  0  0  0
  3  4  1  0  0  0  0
  5 27  1  1  0  0  0
  5  3  1  0  0  0  0
  6  5  1  0  0  0  0
  6  1  1  0  0  0  0
  7  1  1  0  0  0  0
  7  8  2  0  0  0  0
  8 47  1  0  0  0  0
  9  8  1  0  0  0  0
  9 48  1  0  0  0  0
 10 13  1  0  0  0  0
 10  9  2  0  0  0  0
 11 10  1  0  0  0  0
 11 49  1  0  0  0  0
 12 11  2  0  0  0  0
 12  7  1  0  0  0  0
 12 50  1  0  0  0  0
 13 14  1  0  0  0  0
 14 16  2  0  0  0  0
 15 14  1  0  0  0  0
 17 15  1  0  0  0  0
 18 13  1  0  0  0  0
 19 15  1  6  0  0  0
 19 23  1  0  0  0  0
 19 20  1  0  0  0  0
 20 21  2  0  0  0  0
 20 51  1  0  0  0  0
 21 25  1  0  0  0  0
 22 21  1  0  0  0  0
 23 22  1  0  0  0  0
 24 23  1  0  0  0  0
 25 26  1  0  0  0  0
 25 52  1  0  0  0  0
 25 53  1  0  0  0  0
 26 54  1  0  0  0  0
 26 55  1  0  0  0  0
 26 56  1  0  0  0  0
 28 27  1  0  0  0  0
 29 27  1  6  0  0  0
 29 30  1  0  0  0  0
 30 31  1  0  0  0  0
 30 32  1  0  0  0  0
 31 33  1  6  0  0  0
 33 57  1  0  0  0  0
 33 58  1  0  0  0  0
 33 59  1  0  0  0  0
 34 36  1  0  0  0  0
 34 31  1  0  0  0  0
 35 34  1  0  0  0  0
 37 35  2  0  0  0  0
 37 29  1  0  0  0  0
 37 60  1  0  0  0  0
 38 35  1  0  0  0  0
 39 38  1  0  0  0  0
 39 61  1  0  0  0  0
 39 62  1  0  0  0  0
 40 39  1  0  0  0  0
 40 63  1  0  0  0  0
 40 64  1  0  0  0  0
 41 40  1  0  0  0  0
 41 42  1  0  0  0  0
 42 43  1  0  0  0  0
 42 65  1  0  0  0  0
 42 66  1  0  0  0  0
 43 38  1  0  0  0  0
 43 67  1  0  0  0  0
 43 68  1  0  0  0  0
 44 41  1  0  0  0  0
 44 69  1  0  0  0  0
 44 70  1  0  0  0  0
 45 44  1  0  0  0  0
 45 71  1  0  0  0  0
 45 72  1  0  0  0  0
 45 73  1  0  0  0  0
M  END
>  <REMARK>
 VINA RESULT:      -7.9      4.916     10.996
  8 active torsions:
  status: ('A' for Active; 'I' for Inactive)
    1  A    between atoms: C_2  and  C_3 
    2  A    between atoms: C_5  and  N_6 
       I    between atoms: N_6  and  C_8 
       I    between atoms: C_8  and  N_10 
    3  A    between atoms: N_10  and  C_12 
    4  A    between atoms: C_15  and  C_16 
    5  A    between atoms: C_20  and  N_21 
    6  A    between atoms: N_21  and  C_23 
    7  A    between atoms: C_30  and  N_31 
    8  A    between atoms: N_34  and  C_35 

>  <TORSDO>
F 8

$$$$
resistance_project/docking/5319283d3047ac55/Q9UM73_L1196M/docked/molecule_0012_out.pdbqt
 OpenBabel09232609203D

 73 77  0  0  1  0  0  0  0  0999 V2000
   28.7690   46.0100    8.2980 C   0  0  0  0  0  0  0  0  0  0  0  0
   27.5110   46.0260    8.3820 C   0  0  0  0  0  0  0  0  0  0  0  0
   26.8160   47.1310    8.2950 N   0  0  0  0  0  0  0  0  0  0  0  0
   25.8040   47.0360    8.3750 H   0  0  0  0  0  0  0  0  0  0  0  0
   27.2310   48.2330    8.1320 C   0  0  2  0  0  0  0  0  0  0  0  0
   29.1040   47.8610    8.0500 S   0  0  0  0  0  0  0  0  0  0  0  0
   29.9100   45.0860    8.3320 C   0  0  0  0  0  0  0  0  0  0  0  0
   31.0470   45.5260    7.6450 C   0  0  0  0  0  0  0  0  0  0  0  0
   32.1630   44.7150    7.6300 C   0  0  0  0  0  0  0  0  0  0  0  0
   32.1550   43.4940    8.2800 C   0  0  0  0  0  0  0  0  0  0  0  0
   31.0250   43.0780    8.9510 C   0  0  0  0  0  0  0  0  0  0  0  0
   29.8740   43.8750    8.9870 C   0  0  0  0  0  0  0  0  0  0  0  0
   33.3530   42.7300    8.2080 N   0  0  0  0  0  0  0  0  0  0  0  0
   33.8950   42.0400    9.3130 C   0  0  0  0  0  0  0  0  0  0  0  0
   34.9980   41.1930    9.1020 N   0  0  0  0  0  0  0  0  0  0  0  0
   33.4370   42.1450   10.4820 O   0  0  0  0  0  0  0  0  0  0  0  0
   35.3900   41.1610    8.1600 H   0  0  0  0  0  0  0  0  0  0  0  0
   33.8420   42.6770    7.3150 H   0  0  0  0  0  0  0  0  0  0  0  0
   35.6160   40.3780   10.0900 C   0  0  1  0  0  0  0  0  0  0  0  0
   34.9090   39.7120   11.0590 C   0  0  0  0  0  0  0  0  0  0  0  0
   35.8390   39.0370   11.8180 C   0  0  0  0  0  0  0  0  0  0  0  0
   36.9960   39.3090   11.3060 O   0  0  0  0  0  0  0  0  0  0  0  0
   36.9170   40.0950   10.2850 N   0  0  0  0  0  0  0  0  0  0  0  0
   37.6980   40.4390    9.7280 H   0  0  0  0  0  0  0  0  0  0  0  0
   35.4940   38.1900   12.9790 C   0  0  0  0  0  0  0  0  0  0  0  0
   36.6690   37.2640   13.2650 C   0  0  0  0  0  0  0  0  0  0  0  0
   26.8130   49.5860    7.9980 N   0  0  0  0  0  0  0  0  0  0  0  0
   26.5790   50.0980    8.8480 H   0  0  0  0  0  0  0  0  0  0  0  0
   26.6980   50.2730    6.7610 C   0  0  2  0  0  0  0  0  0  0  0  0
   27.6810   51.0340    6.2380 N   0  0  0  0  0  0  0  0  0  0  0  0
   27.5220   51.6690    5.0600 C   0  0  1  0  0  0  0  0  0  0  0  0
   28.5610   51.1300    6.7430 H   0  0  0  0  0  0  0  0  0  0  0  0
   28.6150   52.5170    4.4750 C   0  0  0  0  0  0  0  0  0  0  0  0
   26.3760   51.5680    4.3590 N   0  0  0  0  0  0  0  0  0  0  0  0
   25.3920   50.8150    4.8680 C   0  0  0  0  0  0  0  0  0  0  0  0
   26.2610   52.0510    3.4680 H   0  0  0  0  0  0  0  0  0  0  0  0
   25.5280   50.1540    6.0710 C   0  0  0  0  0  0  0  0  0  0  0  0
   24.1590   50.7020    4.1300 N   0  0  0  0  0  0  0  0  0  0  0  0
   24.1750   50.5750    2.6980 C   0  0  0  0  0  0  0  0  0  0  0  0
   23.1360   51.4920    2.1030 C   0  0  0  0  0  0  0  0  0  0  0  0
   21.8570   51.4280    2.7460 N   0  0  0  0  0  0  0  0  0  0  0  0
   21.7890   50.5250    3.8660 C   0  0  0  0  0  0  0  0  0  0  0  0
   22.8930   50.7200    4.8590 C   0  0  0  0  0  0  0  0  0  0  0  0
   21.2240   52.6930    2.9690 C   0  0  0  0  0  0  0  0  0  0  0  0
   20.2640   53.0730    1.8640 C   0  0  0  0  0  0  0  0  0  0  0  0
   27.0111   45.1345    8.5247 H   0  0  0  0  0  0  0  0  0  0  0  0
   31.0506   46.4371    7.1603 H   0  0  0  0  0  0  0  0  0  0  0  0
   33.0115   45.0221    7.1293 H   0  0  0  0  0  0  0  0  0  0  0  0
   31.0272   42.1659    9.4339 H   0  0  0  0  0  0  0  0  0  0  0  0
   29.0266   43.5650    9.4879 H   0  0  0  0  0  0  0  0  0  0  0  0
   33.8857   39.7160   11.1923 H   0  0  0  0  0  0  0  0  0  0  0  0
   34.6226   37.6101   12.7569 H   0  0  0  0  0  0  0  0  0  0  0  0
   35.2919   38.8019   13.8332 H   0  0  0  0  0  0  0  0  0  0  0  0
   36.8624   36.6572   12.4052 H   0  0  0  0  0  0  0  0  0  0  0  0
   36.4336   36.6363   14.0989 H   0  0  0  0  0  0  0  0  0  0  0  0
   37.5364   37.8480   13.4918 H   0  0  0  0  0  0  0  0  0  0  0  0
   28.2875   52.9278    3.5429 H   0  0  0  0  0  0  0  0  0  0  0  0
   29.4853   51.9157    4.3137 H   0  0  0  0  0  0  0  0  0  0  0  0
   28.8509   53.3116    5.1517 H   0  0  0  0  0  0  0  0  0  0  0  0
   24.7564   49.5785    6.4430 H   0  0  0  0  0  0  0  0  0  0  0  0
   25.1422   50.8424    2.3265 H   0  0  0  0  0  0  0  0  0  0  0  0
   23.9571   49.5633    2.4261 H   0  0  0  0  0  0  0  0  0  0  0  0
   23.0073   51.2298    1.0736 H   0  0  0  0  0  0  0  0  0  0  0  0
   23.4963   52.4908    2.2351 H   0  0  0  0  0  0  0  0  0  0  0  0
   21.8395   49.5223    3.4960 H   0  0  0  0  0  0  0  0  0  0  0  0
   20.8692   50.7241    4.3751 H   0  0  0  0  0  0  0  0  0  0  0  0
   22.8773   49.9299    5.5803 H   0  0  0  0  0  0  0  0  0  0  0  0
   22.7719   51.6500    5.3740 H   0  0  0  0  0  0  0  0  0  0  0  0
   20.6825   52.6462    3.8907 H   0  0  0  0  0  0  0  0  0  0  0  0
   21.9929   53.4366    2.9965 H   0  0  0  0  0  0  0  0  0  0  0  0
   19.4792   52.3478    1.8083 H   0  0  0  0  0  0  0  0  0  0  0  0
   20.7878   53.1041    0.9315 H   0  0  0  0  0  0  0  0  0  0  0  0
   19.8457   54.0360    2.0704 H   0  0  0  0  0  0  0  0  0  0  0  0
  1  7  1  0  0  0  0
  1  2  2  0  0  0  0
  2 46  1  0  0  0  0
  3  4  1  0  0  0  0
  3  2  1  0  0  0  0
  5 27  1  1  0  0  0
  5  3  1  0  0  0  0
  6  5  1  0  0  0  0
  6  1  1  0  0  0  0
  7 12  2  0  0  0  0
  8  7  1  0  0  0  0
  8 47  1  0  0  0  0
  9  8  2  0  0  0  0
  9 10  1  0  0  0  0
  9 48  1  0  0  0  0
 10 11  2  0  0  0  0
 11 12  1  0  0  0  0
 11 49  1  0  0  0  0
 12 50  1  0  0  0  0
 13 10  1  0  0  0  0
 13 14  1  0  0  0  0
 14 16  2  0  0  0  0
 15 14  1  0  0  0  0
 17 15  1  0  0  0  0
 18 13  1  0  0  0  0
 19 15  1  6  0  0  0
 19 23  1  0  0  0  0
 19 20  1  0  0  0  0
 20 21  2  0  0  0  0
 20 51  1  0  0  0  0
 21 25  1  0  0  0  0
 22 21  1  0  0  0  0
 23 22  1  0  0  0  0
 24 23  1  0  0  0  0
 25 26  1  0  0  0  0
 25 52  1  0  0  0  0
 25 53  1  0  0  0  0
 26 54  1  0  0  0  0
 26 55  1  0  0  0  0
 26 56  1  0  0  0  0
 27 28  1  0  0  0  0
 29 27  1  1  0  0  0
 30 32  1  0  0  0  0
 30 29  1  0  0  0  0
 31 33  1  6  0  0  0
 31 30  1  0  0  0  0
 33 57  1  0  0  0  0
 33 58  1  0  0  0  0
 33 59  1  0  0  0  0
 34 35  1  0  0  0  0
 34 31  1  0  0  0  0
 35 37  2  0  0  0  0
 36 34  1  0  0  0  0
 37 29  1  0  0  0  0
 37 60  1  0  0  0  0
 38 43  1  0  0  0  0
 38 35  1  0  0  0  0
 39 38  1  0  0  0  0
 39 61  1  0  0  0  0
 39 62  1  0  0  0  0
 40 39  1  0  0  0  0
 40 41  1  0  0  0  0
 40 63  1  0  0  0  0
 40 64  1  0  0  0  0
 41 44  1  0  0  0  0
 41 42  1  0  0  0  0
 42 43  1  0  0  0  0
 42 65  1  0  0  0  0
 42 66  1  0  0  0  0
 43 67  1  0  0  0  0
 43 68  1  0  0  0  0
 44 69  1  0  0  0  0
 44 70  1  0  0  0  0
 45 44  1  0  0  0  0
 45 71  1  0  0  0  0
 45 72  1  0  0  0  0
 45 73  1  0  0  0  0
M  END
>  <REMARK>
 VINA RESULT:      -7.9      4.639     12.119
  8 active torsions:
  status: ('A' for Active; 'I' for Inactive)
    1  A    between atoms: C_2  and  C_3 
    2  A    between atoms: C_5  and  N_6 
       I    between atoms: N_6  and  C_8 
       I    between atoms: C_8  and  N_10 
    3  A    between atoms: N_10  and  C_12 
    4  A    between atoms: C_15  and  C_16 
    5  A    between atoms: C_20  and  N_21 
    6  A    between atoms: N_21  and  C_23 
    7  A    between atoms: C_30  and  N_31 
    8  A    between atoms: N_34  and  C_35 

>  <TORSDO>
F 8

$$$$
resistance_project/docking/5319283d3047ac55/Q9UM73_L1196M/docked/molecule_0012_out.pdbqt
 OpenBabel09232609203D

 73 77  0  0  1  0  0  0  0  0999 V2000
   29.7330   46.1430    8.0720 C   0  0  0  0  0  0  0  0  0  0  0  0
   28.6200   46.4210    8.5960 C   0  0  0  0  0  0  0  0  0  0  0  0
   27.8900   47.4300    8.1960 N   0  0  0  0  0  0  0  0  0  0  0  0
   27.0050   47.5700    8.6840 H   0  0  0  0  0  0  0  0  0  0  0  0
   28.1400   48.2020    7.3260 C   0  0  2  0  0  0  0  0  0  0  0  0
   29.8330   47.5160    6.7660 S   0  0  0  0  0  0  0  0  0  0  0  0
   30.8370   45.1800    8.1680 C   0  0  0  0  0  0  0  0  0  0  0  0
   32.1060   45.7080    7.9010 C   0  0  0  0  0  0  0  0  0  0  0  0
   33.1980   44.8670    7.9710 C   0  0  0  0  0  0  0  0  0  0  0  0
   33.0390   43.5330    8.2980 C   0  0  0  0  0  0  0  0  0  0  0  0
   31.7820   43.0310    8.5580 C   0  0  0  0  0  0  0  0  0  0  0  0
   30.6500   43.8560    8.4970 C   0  0  0  0  0  0  0  0  0  0  0  0
   34.2230   42.7460    8.3460 N   0  0  0  0  0  0  0  0  0  0  0  0
   34.5940   41.9780    9.4690 C   0  0  0  0  0  0  0  0  0  0  0  0
   35.7040   41.1200    9.3610 N   0  0  0  0  0  0  0  0  0  0  0  0
   33.9790   42.0220   10.5670 O   0  0  0  0  0  0  0  0  0  0  0  0
   36.2240   41.1370    8.4820 H   0  0  0  0  0  0  0  0  0  0  0  0
   34.8330   42.7370    7.5290 H   0  0  0  0  0  0  0  0  0  0  0  0
   36.1650   40.2320   10.3710 C   0  0  1  0  0  0  0  0  0  0  0  0
   35.3440   39.7090   11.3380 C   0  0  0  0  0  0  0  0  0  0  0  0
   36.1390   38.9030   12.1230 C   0  0  0  0  0  0  0  0  0  0  0  0
   37.3320   38.9710   11.6260 O   0  0  0  0  0  0  0  0  0  0  0  0
   37.3980   39.7410   10.5930 N   0  0  0  0  0  0  0  0  0  0  0  0
   38.2330   39.9410   10.0430 H   0  0  0  0  0  0  0  0  0  0  0  0
   35.6420   38.1450   13.2910 C   0  0  0  0  0  0  0  0  0  0  0  0
   36.6270   37.0230   13.5900 C   0  0  0  0  0  0  0  0  0  0  0  0
   27.6280   49.3470    6.6550 N   0  0  0  0  0  0  0  0  0  0  0  0
   28.2770   49.8970    6.0920 H   0  0  0  0  0  0  0  0  0  0  0  0
   26.2780   49.7770    6.7160 C   0  0  2  0  0  0  0  0  0  0  0  0
   25.2410   48.9480    6.9530 N   0  0  0  0  0  0  0  0  0  0  0  0
   23.9740   49.4060    6.9990 C   0  0  1  0  0  0  0  0  0  0  0  0
   25.4200   47.9550    7.1010 H   0  0  0  0  0  0  0  0  0  0  0  0
   22.8190   48.4840    7.2630 C   0  0  0  0  0  0  0  0  0  0  0  0
   23.6950   50.7100    6.8100 N   0  0  0  0  0  0  0  0  0  0  0  0
   24.7150   51.5440    6.5730 C   0  0  0  0  0  0  0  0  0  0  0  0
   22.7340   51.0510    6.8450 H   0  0  0  0  0  0  0  0  0  0  0  0
   26.0200   51.1020    6.5210 C   0  0  0  0  0  0  0  0  0  0  0  0
   24.4280   52.9420    6.3650 N   0  0  0  0  0  0  0  0  0  0  0  0
   23.5690   53.3580    5.2910 C   0  0  0  0  0  0  0  0  0  0  0  0
   24.1870   54.5360    4.5830 C   0  0  0  0  0  0  0  0  0  0  0  0
   24.6730   55.5610    5.4580 N   0  0  0  0  0  0  0  0  0  0  0  0
   24.5170   55.2790    6.8610 C   0  0  0  0  0  0  0  0  0  0  0  0
   25.0270   53.9290    7.2610 C   0  0  0  0  0  0  0  0  0  0  0  0
   25.9490   56.1080    5.1050 C   0  0  0  0  0  0  0  0  0  0  0  0
   26.3400   55.8110    3.6740 C   0  0  0  0  0  0  0  0  0  0  0  0
   28.2727   45.8311    9.3683 H   0  0  0  0  0  0  0  0  0  0  0  0
   32.2222   46.7040    7.6572 H   0  0  0  0  0  0  0  0  0  0  0  0
   34.1417   45.2371    7.7775 H   0  0  0  0  0  0  0  0  0  0  0  0
   31.6725   42.0340    8.8010 H   0  0  0  0  0  0  0  0  0  0  0  0
   29.7077   43.4833    8.6922 H   0  0  0  0  0  0  0  0  0  0  0  0
   34.3336   39.8843   11.4540 H   0  0  0  0  0  0  0  0  0  0  0  0
   34.6797   37.7321   13.0710 H   0  0  0  0  0  0  0  0  0  0  0  0
   35.5532   38.7920   14.1386 H   0  0  0  0  0  0  0  0  0  0  0  0
   36.7080   36.3827   12.7366 H   0  0  0  0  0  0  0  0  0  0  0  0
   36.2791   36.4571   14.4288 H   0  0  0  0  0  0  0  0  0  0  0  0
   37.5861   37.4408   13.8147 H   0  0  0  0  0  0  0  0  0  0  0  0
   21.9072   49.0440    7.2579 H   0  0  0  0  0  0  0  0  0  0  0  0
   22.9458   48.0177    8.2177 H   0  0  0  0  0  0  0  0  0  0  0  0
   22.7807   47.7332    6.5016 H   0  0  0  0  0  0  0  0  0  0  0  0
   26.7901   51.7639    6.3373 H   0  0  0  0  0  0  0  0  0  0  0  0
   23.4454   52.5507    4.5997 H   0  0  0  0  0  0  0  0  0  0  0  0
   22.6146   53.6385    5.6850 H   0  0  0  0  0  0  0  0  0  0  0  0
   23.4475   54.9666    3.9407 H   0  0  0  0  0  0  0  0  0  0  0  0
   25.0351   54.1619    4.0485 H   0  0  0  0  0  0  0  0  0  0  0  0
   23.4762   55.3329    7.1033 H   0  0  0  0  0  0  0  0  0  0  0  0
   25.0966   56.0040    7.3933 H   0  0  0  0  0  0  0  0  0  0  0  0
   26.0930   53.9016    7.1723 H   0  0  0  0  0  0  0  0  0  0  0  0
   24.7676   53.7174    8.2773 H   0  0  0  0  0  0  0  0  0  0  0  0
   25.9139   57.1693    5.2363 H   0  0  0  0  0  0  0  0  0  0  0  0
   26.6807   55.6529    5.7394 H   0  0  0  0  0  0  0  0  0  0  0  0
   25.6268   56.2533    3.0102 H   0  0  0  0  0  0  0  0  0  0  0  0
   26.3598   54.7520    3.5221 H   0  0  0  0  0  0  0  0  0  0  0  0
   27.3100   56.2176    3.4776 H   0  0  0  0  0  0  0  0  0  0  0  0
  1  7  1  0  0  0  0
  1  2  2  0  0  0  0
  2 46  1  0  0  0  0
  3  2  1  0  0  0  0
  3  4  1  0  0  0  0
  5 27  1  1  0  0  0
  5  3  1  0  0  0  0
  6  5  1  0  0  0  0
  6  1  1  0  0  0  0
  7 12  2  0  0  0  0
  8  9  2  0  0  0  0
  8  7  1  0  0  0  0
  8 47  1  0  0  0  0
  9 10  1  0  0  0  0
  9 48  1  0  0  0  0
 10 13  1  0  0  0  0
 10 11  2  0  0  0  0
 11 49  1  0  0  0  0
 12 11  1  0  0  0  0
 12 50  1  0  0  0  0
 13 14  1  0  0  0  0
 14 16  2  0  0  0  0
 15 14  1  0  0  0  0
 17 15  1  0  0  0  0
 18 13  1  0  0  0  0
 19 15  1  6  0  0  0
 19 23  1  0  0  0  0
 19 20  1  0  0  0  0
 20 21  2  0  0  0  0
 20 51  1  0  0  0  0
 21 25  1  0  0  0  0
 22 21  1  0  0  0  0
 23 22  1  0  0  0  0
 24 23  1  0  0  0  0
 25 26  1  0  0  0  0
 25 52  1  0  0  0  0
 25 53  1  0  0  0  0
 26 54  1  0  0  0  0
 26 55  1  0  0  0  0
 26 56  1  0  0  0  0
 28 27  1  0  0  0  0
 29 27  1  6  0  0  0
 29 30  1  0  0  0  0
 30 31  1  0  0  0  0
 30 32  1  0  0  0  0
 31 33  1  1  0  0  0
 33 57  1  0  0  0  0
 33 58  1  0  0  0  0
 33 59  1  0  0  0  0
 34 36  1  0  0  0  0
 34 31  1  0  0  0  0
 35 34  1  0  0  0  0
 37 35  2  0  0  0  0
 37 29  1  0  0  0  0
 37 60  1  0  0  0  0
 38 35  1  0  0  0  0
 38 43  1  0  0  0  0
 39 38  1  0  0  0  0
 39 61  1  0  0  0  0
 39 62  1  0  0  0  0
 40 39  1  0  0  0  0
 40 41  1  0  0  0  0
 40 63  1  0  0  0  0
 40 64  1  0  0  0  0
 41 42  1  0  0  0  0
 42 43  1  0  0  0  0
 42 65  1  0  0  0  0
 42 66  1  0  0  0  0
 43 67  1  0  0  0  0
 43 68  1  0  0  0  0
 44 41  1  0  0  0  0
 44 69  1  0  0  0  0
 44 70  1  0  0  0  0
 45 44  1  0  0  0  0
 45 71  1  0  0  0  0
 45 72  1  0  0  0  0
 45 73  1  0  0  0  0
M  END
>  <REMARK>
 VINA RESULT:      -7.8      4.546     12.602
  8 active torsions:
  status: ('A' for Active; 'I' for Inactive)
    1  A    between atoms: C_2  and  C_3 
    2  A    between atoms: C_5  and  N_6 
       I    between atoms: N_6  and  C_8 
       I    between atoms: C_8  and  N_10 
    3  A    between atoms: N_10  and  C_12 
    4  A    between atoms: C_15  and  C_16 
    5  A    between atoms: C_20  and  N_21 
    6  A    between atoms: N_21  and  C_23 
    7  A    between atoms: C_30  and  N_31 
    8  A    between atoms: N_34  and  C_35 

>  <TORSDO>
F 8

$$$$
