resistance_project/docking/8faf60323ce63d5a/P00533_T790M/docked/molecule_0008_out.pdbqt
 OpenBabel09142609543D

 61 64  0  0  0  0  0  0  0  0999 V2000
  -51.2140    1.0700  -19.3630 C   0  0  0  0  0  0  0  0  0  0  0  0
  -50.0980    0.3490  -19.7330 C   0  0  0  0  0  0  0  0  0  0  0  0
  -49.2460   -0.1430  -18.7740 C   0  0  0  0  0  0  0  0  0  0  0  0
  -49.4850    0.0710  -17.4490 C   0  0  0  0  0  0  0  0  0  0  0  0
  -48.6140   -0.4350  -16.5630 N   0  0  0  0  0  0  0  0  0  0  0  0
  -47.7970   -0.9650  -16.8660 H   0  0  0  0  0  0  0  0  0  0  0  0
  -48.8580   -0.2180  -15.2600 C   0  0  0  0  0  0  0  0  0  0  0  0
  -49.9180    0.4710  -14.8110 N   0  0  0  0  0  0  0  0  0  0  0  0
  -50.0650    0.6120  -13.8120 H   0  0  0  0  0  0  0  0  0  0  0  0
  -50.7790    0.9710  -15.7110 C   0  0  0  0  0  0  0  0  0  0  0  0
  -50.6080    0.7980  -17.0770 C   0  0  0  0  0  0  0  0  0  0  0  0
  -51.4880    1.3070  -18.0090 C   0  0  0  0  0  0  0  0  0  0  0  0
  -49.7740    0.0830  -21.0680 O   0  0  0  0  0  0  0  0  0  0  0  0
  -49.7760   -1.2420  -21.5790 C   0  0  0  0  0  0  0  0  0  0  0  0
  -50.9890   -1.4330  -22.4440 C   0  0  0  0  0  0  0  0  0  0  0  0
  -51.2760   -2.9100  -22.5630 C   0  0  0  0  0  0  0  0  0  0  0  0
  -51.8860   -3.2800  -23.8130 N   0  0  0  0  0  0  0  0  0  0  0  0
  -52.0090   -2.1630  -24.7230 C   0  0  0  0  0  0  0  0  0  0  0  0
  -51.8120   -2.6400  -26.1680 C   0  0  0  0  0  0  0  0  0  0  0  0
  -50.5470   -3.1600  -26.3730 O   0  0  0  0  0  0  0  0  0  0  0  0
  -50.0170   -3.7650  -25.2260 C   0  0  0  0  0  0  0  0  0  0  0  0
  -51.1820   -4.3380  -24.4620 C   0  0  0  0  0  0  0  0  0  0  0  0
  -52.0670    1.5580  -20.3940 N   0  0  0  0  0  0  0  0  0  0  0  0
  -53.2420    0.9070  -20.8430 C   0  0  0  0  0  0  0  0  0  0  0  0
  -53.5880   -0.1770  -20.3020 O   0  0  0  0  0  0  0  0  0  0  0  0
  -51.8150    2.4390  -20.8400 H   0  0  0  0  0  0  0  0  0  0  0  0
  -54.0060    1.5250  -21.9210 C   0  0  0  0  0  0  0  0  0  0  0  0
  -53.7800    1.2000  -23.1840 C   0  0  0  0  0  0  0  0  0  0  0  0
  -51.9000    1.7040  -15.2290 N   0  0  0  0  0  0  0  0  0  0  0  0
  -52.8120    1.2560  -15.1420 H   0  0  0  0  0  0  0  0  0  0  0  0
  -51.7320    3.0790  -14.8660 C   0  0  0  0  0  0  0  0  0  0  0  0
  -50.9360    3.3210  -13.7500 C   0  0  0  0  0  0  0  0  0  0  0  0
  -50.7360    4.6310  -13.3510 C   0  0  0  0  0  0  0  0  0  0  0  0
  -49.7380    5.0230  -11.9440 Cl  0  0  0  0  0  0  0  0  0  0  0  0
  -51.3300    5.6630  -14.0680 C   0  0  0  0  0  0  0  0  0  0  0  0
  -51.1100    6.9310  -13.6470 F   0  0  0  0  0  0  0  0  0  0  0  0
  -52.1070    5.3870  -15.1580 C   0  0  0  0  0  0  0  0  0  0  0  0
  -52.3190    4.0820  -15.5750 C   0  0  0  0  0  0  0  0  0  0  0  0
  -48.4138   -0.6819  -19.0606 H   0  0  0  0  0  0  0  0  0  0  0  0
  -47.9963    0.2913  -14.8817 H   0  0  0  0  0  0  0  0  0  0  0  0
  -52.4509    0.8897  -17.8003 H   0  0  0  0  0  0  0  0  0  0  0  0
  -48.8923   -1.4032  -22.1604 H   0  0  0  0  0  0  0  0  0  0  0  0
  -49.7970   -1.9408  -20.7690 H   0  0  0  0  0  0  0  0  0  0  0  0
  -51.8279   -0.9385  -22.0006 H   0  0  0  0  0  0  0  0  0  0  0  0
  -50.8116   -1.0185  -23.4144 H   0  0  0  0  0  0  0  0  0  0  0  0
  -50.3531   -3.4427  -22.4663 H   0  0  0  0  0  0  0  0  0  0  0  0
  -51.9721   -3.1576  -21.7890 H   0  0  0  0  0  0  0  0  0  0  0  0
  -52.9820   -1.7294  -24.6224 H   0  0  0  0  0  0  0  0  0  0  0  0
  -51.2613   -1.4345  -24.4883 H   0  0  0  0  0  0  0  0  0  0  0  0
  -52.5362   -3.3975  -26.3837 H   0  0  0  0  0  0  0  0  0  0  0  0
  -51.9315   -1.7957  -26.8144 H   0  0  0  0  0  0  0  0  0  0  0  0
  -49.5055   -3.0392  -24.6290 H   0  0  0  0  0  0  0  0  0  0  0  0
  -49.3126   -4.5281  -25.4836 H   0  0  0  0  0  0  0  0  0  0  0  0
  -50.8233   -5.0307  -23.7296 H   0  0  0  0  0  0  0  0  0  0  0  0
  -51.8393   -4.8448  -25.1373 H   0  0  0  0  0  0  0  0  0  0  0  0
  -54.7313    2.2239  -21.6963 H   0  0  0  0  0  0  0  0  0  0  0  0
  -53.0561    0.5018  -23.4156 H   0  0  0  0  0  0  0  0  0  0  0  0
  -54.3277    1.6448  -23.9372 H   0  0  0  0  0  0  0  0  0  0  0  0
  -50.5042    2.5403  -13.2313 H   0  0  0  0  0  0  0  0  0  0  0  0
  -52.5433    6.1633  -15.6795 H   0  0  0  0  0  0  0  0  0  0  0  0
  -52.9050    3.8768  -16.3993 H   0  0  0  0  0  0  0  0  0  0  0  0
  1 12  1  0  0  0  0
  2  1  2  0  0  0  0
  2  3  1  0  0  0  0
  3  4  2  0  0  0  0
  3 39  1  0  0  0  0
  4 11  1  0  0  0  0
  4  5  1  0  0  0  0
  5  7  1  0  0  0  0
  6  5  1  0  0  0  0
  7  8  1  0  0  0  0
  7 40  1  0  0  0  0
  8  9  1  0  0  0  0
 10 29  1  0  0  0  0
 10  8  1  0  0  0  0
 11 10  2  0  0  0  0
 12 11  1  0  0  0  0
 12 41  1  0  0  0  0
 13  2  1  0  0  0  0
 14 13  1  0  0  0  0
 14 42  1  0  0  0  0
 14 43  1  0  0  0  0
 15 14  1  0  0  0  0
 15 44  1  0  0  0  0
 15 45  1  0  0  0  0
 16 15  1  0  0  0  0
 16 46  1  0  0  0  0
 16 47  1  0  0  0  0
 17 16  1  0  0  0  0
 18 17  1  0  0  0  0
 18 48  1  0  0  0  0
 18 49  1  0  0  0  0
 19 18  1  0  0  0  0
 19 50  1  0  0  0  0
 19 51  1  0  0  0  0
 20 19  1  0  0  0  0
 20 21  1  0  0  0  0
 21 22  1  0  0  0  0
 21 52  1  0  0  0  0
 21 53  1  0  0  0  0
 22 17  1  0  0  0  0
 22 54  1  0  0  0  0
 22 55  1  0  0  0  0
 23  1  1  0  0  0  0
 24 23  1  0  0  0  0
 24 25  2  0  0  0  0
 26 23  1  0  0  0  0
 27 24  1  0  0  0  0
 27 56  1  0  0  0  0
 28 27  2  0  0  0  0
 28 57  1  0  0  0  0
 28 58  1  0  0  0  0
 29 30  1  0  0  0  0
 29 31  1  0  0  0  0
 31 32  2  0  0  0  0
 32 33  1  0  0  0  0
 32 59  1  0  0  0  0
 33 34  1  0  0  0  0
 35 36  1  0  0  0  0
 35 33  2  0  0  0  0
 37 35  1  0  0  0  0
 37 60  1  0  0  0  0
 38 37  2  0  0  0  0
 38 31  1  0  0  0  0
 38 61  1  0  0  0  0
M  END
>  <MODEL>
1

>  <REMARK>
 VINA RESULT:      -7.8      0.000      0.000
  9 active torsions:
  status: ('A' for Active; 'I' for Inactive)
    1  A    between atoms: C_2  and  C_3 
       I    between atoms: C_3  and  N_5 
    2  A    between atoms: N_5  and  C_7 
    3  A    between atoms: C_8  and  O_9 
    4  A    between atoms: O_9  and  C_10 
    5  A    between atoms: C_10  and  C_11 
    6  A    between atoms: C_11  and  C_12 
    7  A    between atoms: C_12  and  N_13 
    8  A    between atoms: C_26  and  N_27 
    9  A    between atoms: N_27  and  C_29 

>  <TORSDO>
F 9

$$$$
resistance_project/docking/8faf60323ce63d5a/P00533_T790M/docked/molecule_0008_out.pdbqt
 OpenBabel09142609543D

 61 64  0  0  0  0  0  0  0  0999 V2000
  -49.7640    0.2280  -17.8000 C   0  0  0  0  0  0  0  0  0  0  0  0
  -50.6800    0.9080  -17.0270 C   0  0  0  0  0  0  0  0  0  0  0  0
  -51.8070    1.4430  -17.6050 C   0  0  0  0  0  0  0  0  0  0  0  0
  -52.0360    1.3130  -18.9420 C   0  0  0  0  0  0  0  0  0  0  0  0
  -53.1540    1.8590  -19.4440 N   0  0  0  0  0  0  0  0  0  0  0  0
  -53.8150    2.3570  -18.8480 H   0  0  0  0  0  0  0  0  0  0  0  0
  -53.3720    1.7250  -20.7630 C   0  0  0  0  0  0  0  0  0  0  0  0
  -52.5340    1.0790  -21.5880 N   0  0  0  0  0  0  0  0  0  0  0  0
  -52.7380    1.0020  -22.5850 H   0  0  0  0  0  0  0  0  0  0  0  0
  -51.4200    0.5390  -21.0690 C   0  0  0  0  0  0  0  0  0  0  0  0
  -51.1120    0.6280  -19.7200 C   0  0  0  0  0  0  0  0  0  0  0  0
  -49.9710    0.0760  -19.1770 C   0  0  0  0  0  0  0  0  0  0  0  0
  -50.5250    1.0920  -15.6490 O   0  0  0  0  0  0  0  0  0  0  0  0
  -51.3930    0.4640  -14.7170 C   0  0  0  0  0  0  0  0  0  0  0  0
  -50.5850   -0.4240  -13.8150 C   0  0  0  0  0  0  0  0  0  0  0  0
  -51.5190   -1.3630  -13.0900 C   0  0  0  0  0  0  0  0  0  0  0  0
  -51.0140   -2.7070  -12.9790 N   0  0  0  0  0  0  0  0  0  0  0  0
  -50.2930   -2.9280  -11.7440 C   0  0  0  0  0  0  0  0  0  0  0  0
  -50.5280   -4.3620  -11.2510 C   0  0  0  0  0  0  0  0  0  0  0  0
  -51.8600   -4.5980  -10.9620 O   0  0  0  0  0  0  0  0  0  0  0  0
  -52.7300   -3.8500  -11.7660 C   0  0  0  0  0  0  0  0  0  0  0  0
  -52.0500   -3.6810  -13.0990 C   0  0  0  0  0  0  0  0  0  0  0  0
  -48.6130   -0.3100  -17.1540 N   0  0  0  0  0  0  0  0  0  0  0  0
  -48.5380   -1.6050  -16.5860 C   0  0  0  0  0  0  0  0  0  0  0  0
  -49.5430   -2.3620  -16.6510 O   0  0  0  0  0  0  0  0  0  0  0  0
  -47.7830    0.2800  -17.0980 H   0  0  0  0  0  0  0  0  0  0  0  0
  -47.2920   -2.0080  -15.9440 C   0  0  0  0  0  0  0  0  0  0  0  0
  -46.2230   -2.3000  -16.6660 C   0  0  0  0  0  0  0  0  0  0  0  0
  -50.5340   -0.1420  -21.9510 N   0  0  0  0  0  0  0  0  0  0  0  0
  -49.6500    0.2860  -22.2270 H   0  0  0  0  0  0  0  0  0  0  0  0
  -50.8980   -1.4350  -22.4460 C   0  0  0  0  0  0  0  0  0  0  0  0
  -50.4600   -2.5200  -21.6930 C   0  0  0  0  0  0  0  0  0  0  0  0
  -50.7830   -3.7970  -22.1210 C   0  0  0  0  0  0  0  0  0  0  0  0
  -50.2640   -5.2280  -21.2210 Cl  0  0  0  0  0  0  0  0  0  0  0  0
  -51.5280   -3.9610  -23.2820 C   0  0  0  0  0  0  0  0  0  0  0  0
  -51.8230   -5.2240  -23.6690 F   0  0  0  0  0  0  0  0  0  0  0  0
  -51.9400   -2.8700  -23.9970 C   0  0  0  0  0  0  0  0  0  0  0  0
  -51.6280   -1.5840  -23.5850 C   0  0  0  0  0  0  0  0  0  0  0  0
  -52.4885    1.9497  -17.0186 H   0  0  0  0  0  0  0  0  0  0  0  0
  -54.3149    1.2277  -20.8550 H   0  0  0  0  0  0  0  0  0  0  0  0
  -49.1340    0.5176  -19.6763 H   0  0  0  0  0  0  0  0  0  0  0  0
  -52.1181   -0.1225  -15.2415 H   0  0  0  0  0  0  0  0  0  0  0  0
  -51.8960    1.2076  -14.1348 H   0  0  0  0  0  0  0  0  0  0  0  0
  -50.0535    0.1738  -13.1043 H   0  0  0  0  0  0  0  0  0  0  0  0
  -49.8824   -0.9863  -14.3938 H   0  0  0  0  0  0  0  0  0  0  0  0
  -52.4474   -1.3933  -13.6210 H   0  0  0  0  0  0  0  0  0  0  0  0
  -51.6314   -0.9870  -12.0946 H   0  0  0  0  0  0  0  0  0  0  0  0
  -50.6381   -2.2372  -11.0033 H   0  0  0  0  0  0  0  0  0  0  0  0
  -49.2471   -2.7817  -11.9159 H   0  0  0  0  0  0  0  0  0  0  0  0
  -49.9486   -4.5225  -10.3659 H   0  0  0  0  0  0  0  0  0  0  0  0
  -50.2350   -5.0325  -12.0317 H   0  0  0  0  0  0  0  0  0  0  0  0
  -53.6574   -4.3695  -11.8884 H   0  0  0  0  0  0  0  0  0  0  0  0
  -52.9453   -2.9011  -11.3208 H   0  0  0  0  0  0  0  0  0  0  0  0
  -51.6286   -4.6152  -13.4064 H   0  0  0  0  0  0  0  0  0  0  0  0
  -52.7639   -3.3575  -13.8275 H   0  0  0  0  0  0  0  0  0  0  0  0
  -47.2439   -2.0660  -14.9148 H   0  0  0  0  0  0  0  0  0  0  0  0
  -46.2647   -2.2439  -17.6956 H   0  0  0  0  0  0  0  0  0  0  0  0
  -45.3472   -2.5839  -16.1997 H   0  0  0  0  0  0  0  0  0  0  0  0
  -49.9063   -2.3763  -20.8340 H   0  0  0  0  0  0  0  0  0  0  0  0
  -52.4925   -3.0068  -24.8578 H   0  0  0  0  0  0  0  0  0  0  0  0
  -51.9403   -0.7628  -24.1264 H   0  0  0  0  0  0  0  0  0  0  0  0
  1 23  1  0  0  0  0
  1  2  2  0  0  0  0
  2 13  1  0  0  0  0
  3  2  1  0  0  0  0
  3 39  1  0  0  0  0
  4  3  2  0  0  0  0
  5  4  1  0  0  0  0
  5  6  1  0  0  0  0
  7  5  1  0  0  0  0
  7 40  1  0  0  0  0
  8 10  1  0  0  0  0
  8  7  1  0  0  0  0
  9  8  1  0  0  0  0
 10 11  2  0  0  0  0
 11 12  1  0  0  0  0
 11  4  1  0  0  0  0
 12  1  1  0  0  0  0
 12 41  1  0  0  0  0
 13 14  1  0  0  0  0
 14 15  1  0  0  0  0
 14 42  1  0  0  0  0
 14 43  1  0  0  0  0
 15 16  1  0  0  0  0
 15 44  1  0  0  0  0
 15 45  1  0  0  0  0
 16 17  1  0  0  0  0
 16 46  1  0  0  0  0
 16 47  1  0  0  0  0
 17 18  1  0  0  0  0
 18 19  1  0  0  0  0
 18 48  1  0  0  0  0
 18 49  1  0  0  0  0
 19 20  1  0  0  0  0
 19 50  1  0  0  0  0
 19 51  1  0  0  0  0
 21 20  1  0  0  0  0
 21 52  1  0  0  0  0
 21 53  1  0  0  0  0
 22 17  1  0  0  0  0
 22 21  1  0  0  0  0
 22 54  1  0  0  0  0
 22 55  1  0  0  0  0
 23 26  1  0  0  0  0
 23 24  1  0  0  0  0
 24 27  1  0  0  0  0
 25 24  2  0  0  0  0
 27 56  1  0  0  0  0
 28 27  2  0  0  0  0
 28 57  1  0  0  0  0
 28 58  1  0  0  0  0
 29 10  1  0  0  0  0
 30 29  1  0  0  0  0
 31 29  1  0  0  0  0
 31 32  2  0  0  0  0
 32 59  1  0  0  0  0
 33 32  1  0  0  0  0
 33 34  1  0  0  0  0
 35 33  2  0  0  0  0
 36 35  1  0  0  0  0
 37 38  2  0  0  0  0
 37 35  1  0  0  0  0
 37 60  1  0  0  0  0
 38 31  1  0  0  0  0
 38 61  1  0  0  0  0
M  END
>  <REMARK>
 VINA RESULT:      -7.8      4.894      9.539
  9 active torsions:
  status: ('A' for Active; 'I' for Inactive)
    1  A    between atoms: C_2  and  C_3 
       I    between atoms: C_3  and  N_5 
    2  A    between atoms: N_5  and  C_7 
    3  A    between atoms: C_8  and  O_9 
    4  A    between atoms: O_9  and  C_10 
    5  A    between atoms: C_10  and  C_11 
    6  A    between atoms: C_11  and  C_12 
    7  A    between atoms: C_12  and  N_13 
    8  A    between atoms: C_26  and  N_27 
    9  A    between atoms: N_27  and  C_29 

>  <TORSDO>
F 9

$$$$
resistance_project/docking/8faf60323ce63d5a/P00533_T790M/docked/molecule_0008_out.pdbqt
 OpenBabel09142609543D

 61 64  0  0  0  0  0  0  0  0999 V2000
  -49.8760    0.4180  -17.5220 C   0  0  0  0  0  0  0  0  0  0  0  0
  -50.8100    1.1650  -16.8380 C   0  0  0  0  0  0  0  0  0  0  0  0
  -51.8930    1.6910  -17.5010 C   0  0  0  0  0  0  0  0  0  0  0  0
  -52.0610    1.4860  -18.8380 C   0  0  0  0  0  0  0  0  0  0  0  0
  -53.1390    2.0270  -19.4270 N   0  0  0  0  0  0  0  0  0  0  0  0
  -53.8140    2.5750  -18.8940 H   0  0  0  0  0  0  0  0  0  0  0  0
  -53.2960    1.8200  -20.7450 C   0  0  0  0  0  0  0  0  0  0  0  0
  -52.4360    1.1060  -21.4880 N   0  0  0  0  0  0  0  0  0  0  0  0
  -52.5940    0.9740  -22.4870 H   0  0  0  0  0  0  0  0  0  0  0  0
  -51.3640    0.5720  -20.8830 C   0  0  0  0  0  0  0  0  0  0  0  0
  -51.1190    0.7340  -19.5270 C   0  0  0  0  0  0  0  0  0  0  0  0
  -50.0200    0.1890  -18.8970 C   0  0  0  0  0  0  0  0  0  0  0  0
  -50.7170    1.4270  -15.4660 O   0  0  0  0  0  0  0  0  0  0  0  0
  -51.6810    0.9290  -14.5520 C   0  0  0  0  0  0  0  0  0  0  0  0
  -50.9860    0.1090  -13.5020 C   0  0  0  0  0  0  0  0  0  0  0  0
  -52.0090   -0.3730  -12.5020 C   0  0  0  0  0  0  0  0  0  0  0  0
  -51.6230   -1.5780  -11.8170 N   0  0  0  0  0  0  0  0  0  0  0  0
  -52.7530   -2.2820  -11.2520 C   0  0  0  0  0  0  0  0  0  0  0  0
  -52.5190   -3.7960  -11.3300 C   0  0  0  0  0  0  0  0  0  0  0  0
  -52.4110   -4.2370  -12.6370 O   0  0  0  0  0  0  0  0  0  0  0  0
  -51.8580   -3.2720  -13.4890 C   0  0  0  0  0  0  0  0  0  0  0  0
  -50.8920   -2.4660  -12.6620 C   0  0  0  0  0  0  0  0  0  0  0  0
  -48.7720   -0.1070  -16.7900 N   0  0  0  0  0  0  0  0  0  0  0  0
  -48.7680   -1.3560  -16.1230 C   0  0  0  0  0  0  0  0  0  0  0  0
  -49.7960   -2.0820  -16.1740 O   0  0  0  0  0  0  0  0  0  0  0  0
  -47.9240    0.4570  -16.7430 H   0  0  0  0  0  0  0  0  0  0  0  0
  -47.5640   -1.7510  -15.4010 C   0  0  0  0  0  0  0  0  0  0  0  0
  -47.5640   -2.8160  -14.6160 C   0  0  0  0  0  0  0  0  0  0  0  0
  -50.4540   -0.1810  -21.6790 N   0  0  0  0  0  0  0  0  0  0  0  0
  -49.4530   -0.1560  -21.4820 H   0  0  0  0  0  0  0  0  0  0  0  0
  -50.9600   -0.9750  -22.7570 C   0  0  0  0  0  0  0  0  0  0  0  0
  -51.0400   -0.3410  -23.9940 C   0  0  0  0  0  0  0  0  0  0  0  0
  -51.5220   -1.0580  -25.0750 C   0  0  0  0  0  0  0  0  0  0  0  0
  -51.6550   -0.3260  -26.6800 Cl  0  0  0  0  0  0  0  0  0  0  0  0
  -51.9100   -2.3810  -24.9010 C   0  0  0  0  0  0  0  0  0  0  0  0
  -52.3750   -3.0490  -25.9820 F   0  0  0  0  0  0  0  0  0  0  0  0
  -51.8180   -2.9700  -23.6700 C   0  0  0  0  0  0  0  0  0  0  0  0
  -51.3380   -2.2700  -22.5750 C   0  0  0  0  0  0  0  0  0  0  0  0
  -52.5879    2.2483  -16.9798 H   0  0  0  0  0  0  0  0  0  0  0  0
  -54.2463    1.3407  -20.8551 H   0  0  0  0  0  0  0  0  0  0  0  0
  -49.1487    0.5808  -19.3790 H   0  0  0  0  0  0  0  0  0  0  0  0
  -52.3876    0.3181  -15.0740 H   0  0  0  0  0  0  0  0  0  0  0  0
  -52.1949    1.7458  -14.0897 H   0  0  0  0  0  0  0  0  0  0  0  0
  -50.2526    0.7089  -13.0049 H   0  0  0  0  0  0  0  0  0  0  0  0
  -50.5017   -0.7291  -13.9580 H   0  0  0  0  0  0  0  0  0  0  0  0
  -52.9270   -0.5577  -13.0198 H   0  0  0  0  0  0  0  0  0  0  0  0
  -52.1064    0.3918  -11.7600 H   0  0  0  0  0  0  0  0  0  0  0  0
  -53.6370   -2.0312  -11.8001 H   0  0  0  0  0  0  0  0  0  0  0  0
  -52.8686   -1.9964  -10.2273 H   0  0  0  0  0  0  0  0  0  0  0  0
  -51.6147   -4.0331  -10.8096 H   0  0  0  0  0  0  0  0  0  0  0  0
  -53.3609   -4.2840  -10.8850 H   0  0  0  0  0  0  0  0  0  0  0  0
  -51.3437   -3.7463  -14.2986 H   0  0  0  0  0  0  0  0  0  0  0  0
  -52.6192   -2.6477  -13.9083 H   0  0  0  0  0  0  0  0  0  0  0  0
  -50.2534   -1.9004  -13.3080 H   0  0  0  0  0  0  0  0  0  0  0  0
  -50.2971   -3.1233  -12.0629 H   0  0  0  0  0  0  0  0  0  0  0  0
  -46.7018   -1.1932  -15.5036 H   0  0  0  0  0  0  0  0  0  0  0  0
  -48.4228   -3.3781  -14.5090 H   0  0  0  0  0  0  0  0  0  0  0  0
  -46.7052   -3.0846  -14.1107 H   0  0  0  0  0  0  0  0  0  0  0  0
  -50.7462    0.6423  -24.1024 H   0  0  0  0  0  0  0  0  0  0  0  0
  -52.1112   -3.9528  -23.5549 H   0  0  0  0  0  0  0  0  0  0  0  0
  -51.2690   -2.7176  -21.6477 H   0  0  0  0  0  0  0  0  0  0  0  0
  1  2  2  0  0  0  0
  1 23  1  0  0  0  0
  2 13  1  0  0  0  0
  3  2  1  0  0  0  0
  3 39  1  0  0  0  0
  4  3  2  0  0  0  0
  5  6  1  0  0  0  0
  5  4  1  0  0  0  0
  7  5  1  0  0  0  0
  7 40  1  0  0  0  0
  8 10  1  0  0  0  0
  8  7  1  0  0  0  0
  9  8  1  0  0  0  0
 10 11  2  0  0  0  0
 11 12  1  0  0  0  0
 11  4  1  0  0  0  0
 12  1  1  0  0  0  0
 12 41  1  0  0  0  0
 13 14  1  0  0  0  0
 14 15  1  0  0  0  0
 14 42  1  0  0  0  0
 14 43  1  0  0  0  0
 15 16  1  0  0  0  0
 15 44  1  0  0  0  0
 15 45  1  0  0  0  0
 16 17  1  0  0  0  0
 16 46  1  0  0  0  0
 16 47  1  0  0  0  0
 17 18  1  0  0  0  0
 18 48  1  0  0  0  0
 18 49  1  0  0  0  0
 19 18  1  0  0  0  0
 19 50  1  0  0  0  0
 19 51  1  0  0  0  0
 20 19  1  0  0  0  0
 21 22  1  0  0  0  0
 21 20  1  0  0  0  0
 21 52  1  0  0  0  0
 21 53  1  0  0  0  0
 22 17  1  0  0  0  0
 22 54  1  0  0  0  0
 22 55  1  0  0  0  0
 23 26  1  0  0  0  0
 23 24  1  0  0  0  0
 24 27  1  0  0  0  0
 25 24  2  0  0  0  0
 27 28  2  0  0  0  0
 27 56  1  0  0  0  0
 28 57  1  0  0  0  0
 28 58  1  0  0  0  0
 29 30  1  0  0  0  0
 29 10  1  0  0  0  0
 31 38  1  0  0  0  0
 31 29  1  0  0  0  0
 32 31  2  0  0  0  0
 32 59  1  0  0  0  0
 33 35  2  0  0  0  0
 33 32  1  0  0  0  0
 34 33  1  0  0  0  0
 35 37  1  0  0  0  0
 36 35  1  0  0  0  0
 37 38  2  0  0  0  0
 37 60  1  0  0  0  0
 38 61  1  0  0  0  0
M  END
>  <REMARK>
 VINA RESULT:      -7.7      4.950      9.688
  9 active torsions:
  status: ('A' for Active; 'I' for Inactive)
    1  A    between atoms: C_2  and  C_3 
       I    between atoms: C_3  and  N_5 
    2  A    between atoms: N_5  and  C_7 
    3  A    between atoms: C_8  and  O_9 
    4  A    between atoms: O_9  and  C_10 
    5  A    between atoms: C_10  and  C_11 
    6  A    between atoms: C_11  and  C_12 
    7  A    between atoms: C_12  and  N_13 
    8  A    between atoms: C_26  and  N_27 
    9  A    between atoms: N_27  and  C_29 

>  <TORSDO>
F 9

$$$$
resistance_project/docking/8faf60323ce63d5a/P00533_T790M/docked/molecule_0008_out.pdbqt
 OpenBabel09142609543D

 61 64  0  0  0  0  0  0  0  0999 V2000
  -50.6040    0.5970  -18.6680 C   0  0  0  0  0  0  0  0  0  0  0  0
  -51.6170    1.3110  -18.0640 C   0  0  0  0  0  0  0  0  0  0  0  0
  -52.6890    1.7480  -18.8050 C   0  0  0  0  0  0  0  0  0  0  0  0
  -52.7690    1.4870  -20.1400 C   0  0  0  0  0  0  0  0  0  0  0  0
  -53.8410    1.9420  -20.8070 N   0  0  0  0  0  0  0  0  0  0  0  0
  -54.5750    2.4680  -20.3330 H   0  0  0  0  0  0  0  0  0  0  0  0
  -53.9100    1.6820  -22.1230 C   0  0  0  0  0  0  0  0  0  0  0  0
  -52.9700    0.9950  -22.7910 N   0  0  0  0  0  0  0  0  0  0  0  0
  -53.0630    0.8200  -23.7910 H   0  0  0  0  0  0  0  0  0  0  0  0
  -51.9040    0.5480  -22.1090 C   0  0  0  0  0  0  0  0  0  0  0  0
  -51.7470    0.7700  -20.7480 C   0  0  0  0  0  0  0  0  0  0  0  0
  -50.6560    0.3130  -20.0390 C   0  0  0  0  0  0  0  0  0  0  0  0
  -51.6180    1.6240  -16.7000 O   0  0  0  0  0  0  0  0  0  0  0  0
  -51.9430    2.9270  -16.2410 C   0  0  0  0  0  0  0  0  0  0  0  0
  -51.4110    3.1050  -14.8490 C   0  0  0  0  0  0  0  0  0  0  0  0
  -50.2150    2.2030  -14.6640 C   0  0  0  0  0  0  0  0  0  0  0  0
  -50.2180    1.4900  -13.4140 N   0  0  0  0  0  0  0  0  0  0  0  0
  -51.3870    1.7790  -12.6120 C   0  0  0  0  0  0  0  0  0  0  0  0
  -51.8160    0.5250  -11.8390 C   0  0  0  0  0  0  0  0  0  0  0  0
  -52.1810   -0.5050  -12.6860 O   0  0  0  0  0  0  0  0  0  0  0  0
  -51.4800   -0.4840  -13.8990 C   0  0  0  0  0  0  0  0  0  0  0  0
  -50.1150    0.0790  -13.6000 C   0  0  0  0  0  0  0  0  0  0  0  0
  -49.5150    0.1650  -17.8570 N   0  0  0  0  0  0  0  0  0  0  0  0
  -49.4080   -1.1190  -17.2690 C   0  0  0  0  0  0  0  0  0  0  0  0
  -50.3210   -1.9640  -17.4700 O   0  0  0  0  0  0  0  0  0  0  0  0
  -48.7580    0.8270  -17.6880 H   0  0  0  0  0  0  0  0  0  0  0  0
  -48.2370   -1.4090  -16.4500 C   0  0  0  0  0  0  0  0  0  0  0  0
  -48.2050   -2.4760  -15.6680 C   0  0  0  0  0  0  0  0  0  0  0  0
  -50.9090   -0.1770  -22.8240 N   0  0  0  0  0  0  0  0  0  0  0  0
  -50.0300    0.2710  -23.0830 H   0  0  0  0  0  0  0  0  0  0  0  0
  -51.1560   -1.5430  -23.1750 C   0  0  0  0  0  0  0  0  0  0  0  0
  -50.7150   -2.4960  -22.2620 C   0  0  0  0  0  0  0  0  0  0  0  0
  -50.9270   -3.8340  -22.5470 C   0  0  0  0  0  0  0  0  0  0  0  0
  -50.3960   -5.1060  -21.4390 Cl  0  0  0  0  0  0  0  0  0  0  0  0
  -51.5690   -4.1880  -23.7270 C   0  0  0  0  0  0  0  0  0  0  0  0
  -51.7580   -5.5070  -23.9700 F   0  0  0  0  0  0  0  0  0  0  0  0
  -51.9880   -3.2240  -24.6010 C   0  0  0  0  0  0  0  0  0  0  0  0
  -51.7860   -1.8790  -24.3350 C   0  0  0  0  0  0  0  0  0  0  0  0
  -53.4432    2.2808  -18.3442 H   0  0  0  0  0  0  0  0  0  0  0  0
  -54.8238    1.1445  -22.2678 H   0  0  0  0  0  0  0  0  0  0  0  0
  -49.7827    0.7392  -20.4868 H   0  0  0  0  0  0  0  0  0  0  0  0
  -53.0058    3.0505  -16.2368 H   0  0  0  0  0  0  0  0  0  0  0  0
  -51.5057    3.6569  -16.8898 H   0  0  0  0  0  0  0  0  0  0  0  0
  -52.1688    2.8469  -14.1391 H   0  0  0  0  0  0  0  0  0  0  0  0
  -51.1231    4.1245  -14.6984 H   0  0  0  0  0  0  0  0  0  0  0  0
  -49.3295    2.8020  -14.7095 H   0  0  0  0  0  0  0  0  0  0  0  0
  -50.2516    1.4702  -15.4429 H   0  0  0  0  0  0  0  0  0  0  0  0
  -52.1863    2.0923  -13.2507 H   0  0  0  0  0  0  0  0  0  0  0  0
  -51.1521    2.5573  -11.9163 H   0  0  0  0  0  0  0  0  0  0  0  0
  -50.9994    0.1984  -11.2296 H   0  0  0  0  0  0  0  0  0  0  0  0
  -52.6666    0.7794  -11.2417 H   0  0  0  0  0  0  0  0  0  0  0  0
  -51.3921   -1.4756  -14.2914 H   0  0  0  0  0  0  0  0  0  0  0  0
  -51.9902    0.1099  -14.6283 H   0  0  0  0  0  0  0  0  0  0  0  0
  -49.4564   -0.1267  -14.4178 H   0  0  0  0  0  0  0  0  0  0  0  0
  -49.7275   -0.3727  -12.7108 H   0  0  0  0  0  0  0  0  0  0  0  0
  -47.4236   -0.7746  -16.4806 H   0  0  0  0  0  0  0  0  0  0  0  0
  -49.0151   -3.1144  -15.6328 H   0  0  0  0  0  0  0  0  0  0  0  0
  -47.3700   -2.6697  -15.0934 H   0  0  0  0  0  0  0  0  0  0  0  0
  -50.2401   -2.2114  -21.3911 H   0  0  0  0  0  0  0  0  0  0  0  0
  -52.4629   -3.5026  -25.4739 H   0  0  0  0  0  0  0  0  0  0  0  0
  -52.1036   -1.1532  -24.9964 H   0  0  0  0  0  0  0  0  0  0  0  0
  1  2  2  0  0  0  0
  1 23  1  0  0  0  0
  2 13  1  0  0  0  0
  3  2  1  0  0  0  0
  3 39  1  0  0  0  0
  4  3  2  0  0  0  0
  5  6  1  0  0  0  0
  5  4  1  0  0  0  0
  7  5  1  0  0  0  0
  7 40  1  0  0  0  0
  8  7  1  0  0  0  0
  8 10  1  0  0  0  0
  9  8  1  0  0  0  0
 10 11  2  0  0  0  0
 11  4  1  0  0  0  0
 11 12  1  0  0  0  0
 12  1  1  0  0  0  0
 12 41  1  0  0  0  0
 13 14  1  0  0  0  0
 14 15  1  0  0  0  0
 14 42  1  0  0  0  0
 14 43  1  0  0  0  0
 15 16  1  0  0  0  0
 15 44  1  0  0  0  0
 15 45  1  0  0  0  0
 16 17  1  0  0  0  0
 16 46  1  0  0  0  0
 16 47  1  0  0  0  0
 17 18  1  0  0  0  0
 18 19  1  0  0  0  0
 18 48  1  0  0  0  0
 18 49  1  0  0  0  0
 19 50  1  0  0  0  0
 19 51  1  0  0  0  0
 20 19  1  0  0  0  0
 21 22  1  0  0  0  0
 21 20  1  0  0  0  0
 21 52  1  0  0  0  0
 21 53  1  0  0  0  0
 22 17  1  0  0  0  0
 22 54  1  0  0  0  0
 22 55  1  0  0  0  0
 23 26  1  0  0  0  0
 23 24  1  0  0  0  0
 24 27  1  0  0  0  0
 25 24  2  0  0  0  0
 27 28  2  0  0  0  0
 27 56  1  0  0  0  0
 28 57  1  0  0  0  0
 28 58  1  0  0  0  0
 29 10  1  0  0  0  0
 30 29  1  0  0  0  0
 31 29  1  0  0  0  0
 31 32  2  0  0  0  0
 32 59  1  0  0  0  0
 33 32  1  0  0  0  0
 33 34  1  0  0  0  0
 35 33  2  0  0  0  0
 36 35  1  0  0  0  0
 37 38  2  0  0  0  0
 37 35  1  0  0  0  0
 37 60  1  0  0  0  0
 38 31  1  0  0  0  0
 38 61  1  0  0  0  0
M  END
>  <REMARK>
 VINA RESULT:      -7.7      4.374      9.573
  9 active torsions:
  status: ('A' for Active; 'I' for Inactive)
    1  A    between atoms: C_2  and  C_3 
       I    between atoms: C_3  and  N_5 
    2  A    between atoms: N_5  and  C_7 
    3  A    between atoms: C_8  and  O_9 
    4  A    between atoms: O_9  and  C_10 
    5  A    between atoms: C_10  and  C_11 
    6  A    between atoms: C_11  and  C_12 
    7  A    between atoms: C_12  and  N_13 
    8  A    between atoms: C_26  and  N_27 
    9  A    between atoms: N_27  and  C_29 

>  <TORSDO>
F 9

$$$$
resistance_project/docking/8faf60323ce63d5a/P00533_T790M/docked/molecule_0008_out.pdbqt
 OpenBabel09142609543D

 61 64  0  0  0  0  0  0  0  0999 V2000
  -51.1710    1.0540  -19.2100 C   0  0  0  0  0  0  0  0  0  0  0  0
  -50.0610    0.3020  -19.5300 C   0  0  0  0  0  0  0  0  0  0  0  0
  -49.2230   -0.1460  -18.5370 C   0  0  0  0  0  0  0  0  0  0  0  0
  -49.4710    0.1450  -17.2280 C   0  0  0  0  0  0  0  0  0  0  0  0
  -48.6140   -0.3220  -16.3070 N   0  0  0  0  0  0  0  0  0  0  0  0
  -47.8000   -0.8760  -16.5740 H   0  0  0  0  0  0  0  0  0  0  0  0
  -48.8660   -0.0300  -15.0200 C   0  0  0  0  0  0  0  0  0  0  0  0
  -49.9220    0.6950  -14.6210 N   0  0  0  0  0  0  0  0  0  0  0  0
  -50.0760    0.8930  -13.6320 H   0  0  0  0  0  0  0  0  0  0  0  0
  -50.7690    1.1530  -15.5550 C   0  0  0  0  0  0  0  0  0  0  0  0
  -50.5880    0.9030  -16.9070 C   0  0  0  0  0  0  0  0  0  0  0  0
  -51.4540    1.3700  -17.8740 C   0  0  0  0  0  0  0  0  0  0  0  0
  -49.7290   -0.0420  -20.8450 O   0  0  0  0  0  0  0  0  0  0  0  0
  -49.0800   -1.2680  -21.1470 C   0  0  0  0  0  0  0  0  0  0  0  0
  -49.9460   -2.0650  -22.0790 C   0  0  0  0  0  0  0  0  0  0  0  0
  -50.6240   -1.1230  -23.0420 C   0  0  0  0  0  0  0  0  0  0  0  0
  -50.2660   -1.3470  -24.4180 N   0  0  0  0  0  0  0  0  0  0  0  0
  -50.1770   -2.7530  -24.7470 C   0  0  0  0  0  0  0  0  0  0  0  0
  -50.6530   -2.9850  -26.1870 C   0  0  0  0  0  0  0  0  0  0  0  0
  -51.9810   -2.6380  -26.3550 O   0  0  0  0  0  0  0  0  0  0  0  0
  -52.3780   -1.5900  -25.5140 C   0  0  0  0  0  0  0  0  0  0  0  0
  -51.1710   -0.7110  -25.3200 C   0  0  0  0  0  0  0  0  0  0  0  0
  -52.0110    1.4940  -20.2740 N   0  0  0  0  0  0  0  0  0  0  0  0
  -53.1920    0.8350  -20.6940 C   0  0  0  0  0  0  0  0  0  0  0  0
  -53.5570   -0.2110  -20.0940 O   0  0  0  0  0  0  0  0  0  0  0  0
  -51.7420    2.3440  -20.7690 H   0  0  0  0  0  0  0  0  0  0  0  0
  -53.9390    1.4000  -21.8120 C   0  0  0  0  0  0  0  0  0  0  0  0
  -53.5500    1.1930  -23.0600 C   0  0  0  0  0  0  0  0  0  0  0  0
  -51.8860    1.9250  -15.1240 N   0  0  0  0  0  0  0  0  0  0  0  0
  -52.8170    1.5100  -15.0870 H   0  0  0  0  0  0  0  0  0  0  0  0
  -51.6870    3.2910  -14.7430 C   0  0  0  0  0  0  0  0  0  0  0  0
  -50.8810    3.5000  -13.6280 C   0  0  0  0  0  0  0  0  0  0  0  0
  -50.6500    4.8000  -13.2120 C   0  0  0  0  0  0  0  0  0  0  0  0
  -49.6390    5.1520  -11.8050 Cl  0  0  0  0  0  0  0  0  0  0  0  0
  -51.2250    5.8540  -13.9130 C   0  0  0  0  0  0  0  0  0  0  0  0
  -50.9770    7.1110  -13.4760 F   0  0  0  0  0  0  0  0  0  0  0  0
  -52.0120    5.6100  -15.0040 C   0  0  0  0  0  0  0  0  0  0  0  0
  -52.2550    4.3150  -15.4360 C   0  0  0  0  0  0  0  0  0  0  0  0
  -48.3952   -0.7100  -18.7853 H   0  0  0  0  0  0  0  0  0  0  0  0
  -48.0017    0.4900  -14.6628 H   0  0  0  0  0  0  0  0  0  0  0  0
  -52.4238    0.9767  -17.6512 H   0  0  0  0  0  0  0  0  0  0  0  0
  -48.1383   -1.0693  -21.6146 H   0  0  0  0  0  0  0  0  0  0  0  0
  -48.9159   -1.8208  -20.2457 H   0  0  0  0  0  0  0  0  0  0  0  0
  -49.3425   -2.7614  -22.6227 H   0  0  0  0  0  0  0  0  0  0  0  0
  -50.6824   -2.6025  -21.5189 H   0  0  0  0  0  0  0  0  0  0  0  0
  -51.6826   -1.2439  -22.9442 H   0  0  0  0  0  0  0  0  0  0  0  0
  -50.3017   -0.1339  -22.7917 H   0  0  0  0  0  0  0  0  0  0  0  0
  -49.1611   -3.0755  -24.6531 H   0  0  0  0  0  0  0  0  0  0  0  0
  -50.7976   -3.3109  -24.0773 H   0  0  0  0  0  0  0  0  0  0  0  0
  -50.0549   -2.3935  -26.8482 H   0  0  0  0  0  0  0  0  0  0  0  0
  -50.5535   -4.0279  -26.4044 H   0  0  0  0  0  0  0  0  0  0  0  0
  -52.7075   -1.9772  -24.5725 H   0  0  0  0  0  0  0  0  0  0  0  0
  -53.1904   -1.0400  -25.9411 H   0  0  0  0  0  0  0  0  0  0  0  0
  -51.4761    0.2314  -24.9153 H   0  0  0  0  0  0  0  0  0  0  0  0
  -50.6875   -0.5522  -26.2612 H   0  0  0  0  0  0  0  0  0  0  0  0
  -54.7808    1.9679  -21.6278 H   0  0  0  0  0  0  0  0  0  0  0  0
  -52.7091    0.6261  -23.2511 H   0  0  0  0  0  0  0  0  0  0  0  0
  -54.0876    1.5985  -23.8420 H   0  0  0  0  0  0  0  0  0  0  0  0
  -50.4644    2.7029  -13.1220 H   0  0  0  0  0  0  0  0  0  0  0  0
  -52.4321    6.4026  -15.5143 H   0  0  0  0  0  0  0  0  0  0  0  0
  -52.8497    4.1330  -16.2596 H   0  0  0  0  0  0  0  0  0  0  0  0
  1 12  1  0  0  0  0
  2  1  2  0  0  0  0
  2  3  1  0  0  0  0
  3  4  2  0  0  0  0
  3 39  1  0  0  0  0
  4 11  1  0  0  0  0
  4  5  1  0  0  0  0
  5  7  1  0  0  0  0
  6  5  1  0  0  0  0
  7  8  1  0  0  0  0
  7 40  1  0  0  0  0
  8  9  1  0  0  0  0
 10 29  1  0  0  0  0
 10  8  1  0  0  0  0
 11 10  2  0  0  0  0
 12 11  1  0  0  0  0
 12 41  1  0  0  0  0
 13  2  1  0  0  0  0
 14 13  1  0  0  0  0
 14 42  1  0  0  0  0
 14 43  1  0  0  0  0
 15 14  1  0  0  0  0
 15 44  1  0  0  0  0
 15 45  1  0  0  0  0
 16 15  1  0  0  0  0
 16 46  1  0  0  0  0
 16 47  1  0  0  0  0
 17 16  1  0  0  0  0
 18 17  1  0  0  0  0
 18 48  1  0  0  0  0
 18 49  1  0  0  0  0
 19 18  1  0  0  0  0
 19 50  1  0  0  0  0
 19 51  1  0  0  0  0
 20 19  1  0  0  0  0
 20 21  1  0  0  0  0
 21 22  1  0  0  0  0
 21 52  1  0  0  0  0
 21 53  1  0  0  0  0
 22 17  1  0  0  0  0
 22 54  1  0  0  0  0
 22 55  1  0  0  0  0
 23  1  1  0  0  0  0
 24 23  1  0  0  0  0
 24 25  2  0  0  0  0
 26 23  1  0  0  0  0
 27 24  1  0  0  0  0
 27 56  1  0  0  0  0
 28 27  2  0  0  0  0
 28 57  1  0  0  0  0
 28 58  1  0  0  0  0
 29 30  1  0  0  0  0
 29 31  1  0  0  0  0
 31 32  2  0  0  0  0
 32 33  1  0  0  0  0
 32 59  1  0  0  0  0
 33 34  1  0  0  0  0
 35 36  1  0  0  0  0
 35 33  2  0  0  0  0
 37 35  1  0  0  0  0
 37 60  1  0  0  0  0
 38 37  2  0  0  0  0
 38 31  1  0  0  0  0
 38 61  1  0  0  0  0
M  END
>  <REMARK>
 VINA RESULT:      -7.4      0.802      1.164
  9 active torsions:
  status: ('A' for Active; 'I' for Inactive)
    1  A    between atoms: C_2  and  C_3 
       I    between atoms: C_3  and  N_5 
    2  A    between atoms: N_5  and  C_7 
    3  A    between atoms: C_8  and  O_9 
    4  A    between atoms: O_9  and  C_10 
    5  A    between atoms: C_10  and  C_11 
    6  A    between atoms: C_11  and  C_12 
    7  A    between atoms: C_12  and  N_13 
    8  A    between atoms: C_26  and  N_27 
    9  A    between atoms: N_27  and  C_29 

>  <TORSDO>
F 9

$$$$
resistance_project/docking/8faf60323ce63d5a/P00533_T790M/docked/molecule_0008_out.pdbqt
 OpenBabel09142609543D

 61 64  0  0  0  0  0  0  0  0999 V2000
  -51.2990    0.3370  -20.5140 C   0  0  0  0  0  0  0  0  0  0  0  0
  -52.3750    0.8900  -19.8540 C   0  0  0  0  0  0  0  0  0  0  0  0
  -53.4490    1.3680  -20.5660 C   0  0  0  0  0  0  0  0  0  0  0  0
  -53.4690    1.3050  -21.9270 C   0  0  0  0  0  0  0  0  0  0  0  0
  -54.5470    1.7890  -22.5630 N   0  0  0  0  0  0  0  0  0  0  0  0
  -55.3290    2.1930  -22.0480 H   0  0  0  0  0  0  0  0  0  0  0  0
  -54.5580    1.7230  -23.9050 C   0  0  0  0  0  0  0  0  0  0  0  0
  -53.5550    1.2020  -24.6270 N   0  0  0  0  0  0  0  0  0  0  0  0
  -53.6040    1.1710  -25.6450 H   0  0  0  0  0  0  0  0  0  0  0  0
  -52.4840    0.7220  -23.9750 C   0  0  0  0  0  0  0  0  0  0  0  0
  -52.3850    0.7480  -22.5910 C   0  0  0  0  0  0  0  0  0  0  0  0
  -51.2890    0.2570  -21.9130 C   0  0  0  0  0  0  0  0  0  0  0  0
  -52.4380    0.9970  -18.4600 O   0  0  0  0  0  0  0  0  0  0  0  0
  -52.0230    2.1770  -17.7890 C   0  0  0  0  0  0  0  0  0  0  0  0
  -51.7870    1.8610  -16.3400 C   0  0  0  0  0  0  0  0  0  0  0  0
  -50.8870    0.6520  -16.2440 C   0  0  0  0  0  0  0  0  0  0  0  0
  -50.4820    0.3400  -14.8980 N   0  0  0  0  0  0  0  0  0  0  0  0
  -51.6070    0.0970  -14.0220 C   0  0  0  0  0  0  0  0  0  0  0  0
  -51.2480   -0.9880  -12.9980 C   0  0  0  0  0  0  0  0  0  0  0  0
  -50.9680   -2.1990  -13.6030 O   0  0  0  0  0  0  0  0  0  0  0  0
  -50.4050   -2.0500  -14.8780 C   0  0  0  0  0  0  0  0  0  0  0  0
  -49.5980   -0.7790  -14.8490 C   0  0  0  0  0  0  0  0  0  0  0  0
  -50.2100   -0.1460  -19.7320 N   0  0  0  0  0  0  0  0  0  0  0  0
  -50.1200   -1.4530  -19.1950 C   0  0  0  0  0  0  0  0  0  0  0  0
  -51.0490   -2.2730  -19.4190 O   0  0  0  0  0  0  0  0  0  0  0  0
  -49.4400    0.4960  -19.5450 H   0  0  0  0  0  0  0  0  0  0  0  0
  -48.9460   -1.7950  -18.3990 C   0  0  0  0  0  0  0  0  0  0  0  0
  -47.7470   -1.3480  -18.7350 C   0  0  0  0  0  0  0  0  0  0  0  0
  -51.4210    0.1730  -24.7470 N   0  0  0  0  0  0  0  0  0  0  0  0
  -50.8190    0.7800  -25.3030 H   0  0  0  0  0  0  0  0  0  0  0  0
  -51.2080   -1.2430  -24.7350 C   0  0  0  0  0  0  0  0  0  0  0  0
  -49.8800   -1.6580  -24.7230 C   0  0  0  0  0  0  0  0  0  0  0  0
  -49.6110   -3.0160  -24.7100 C   0  0  0  0  0  0  0  0  0  0  0  0
  -47.9510   -3.6260  -24.6940 Cl  0  0  0  0  0  0  0  0  0  0  0  0
  -50.6640   -3.9220  -24.7090 C   0  0  0  0  0  0  0  0  0  0  0  0
  -50.3610   -5.2420  -24.6960 F   0  0  0  0  0  0  0  0  0  0  0  0
  -51.9570   -3.4770  -24.7230 C   0  0  0  0  0  0  0  0  0  0  0  0
  -52.2480   -2.1220  -24.7360 C   0  0  0  0  0  0  0  0  0  0  0  0
  -54.2507    1.7800  -20.0634 H   0  0  0  0  0  0  0  0  0  0  0  0
  -55.4291    1.1578  -24.1633 H   0  0  0  0  0  0  0  0  0  0  0  0
  -50.4318    0.7966  -22.2578 H   0  0  0  0  0  0  0  0  0  0  0  0
  -52.7845    2.9239  -17.8734 H   0  0  0  0  0  0  0  0  0  0  0  0
  -51.1196    2.5436  -18.2298 H   0  0  0  0  0  0  0  0  0  0  0  0
  -52.7208    1.6527  -15.8610 H   0  0  0  0  0  0  0  0  0  0  0  0
  -51.3249    2.6965  -15.8570 H   0  0  0  0  0  0  0  0  0  0  0  0
  -50.0091    0.8367  -16.8271 H   0  0  0  0  0  0  0  0  0  0  0  0
  -51.4469   -0.1853  -16.6051 H   0  0  0  0  0  0  0  0  0  0  0  0
  -52.4452   -0.2270  -14.6028 H   0  0  0  0  0  0  0  0  0  0  0  0
  -51.8523    1.0012  -13.5052 H   0  0  0  0  0  0  0  0  0  0  0  0
  -52.0731   -1.1185  -12.3294 H   0  0  0  0  0  0  0  0  0  0  0  0
  -50.3712   -0.6702  -12.4735 H   0  0  0  0  0  0  0  0  0  0  0  0
  -49.7723   -2.8835  -15.1014 H   0  0  0  0  0  0  0  0  0  0  0  0
  -51.1639   -2.0069  -15.6311 H   0  0  0  0  0  0  0  0  0  0  0  0
  -49.0225   -0.7411  -13.9477 H   0  0  0  0  0  0  0  0  0  0  0  0
  -48.9385   -0.7529  -15.6912 H   0  0  0  0  0  0  0  0  0  0  0  0
  -49.0521   -2.3925  -17.5643 H   0  0  0  0  0  0  0  0  0  0  0  0
  -47.6341   -0.7501  -19.5686 H   0  0  0  0  0  0  0  0  0  0  0  0
  -46.9246   -1.5972  -18.1635 H   0  0  0  0  0  0  0  0  0  0  0  0
  -49.1122   -0.9685  -24.7238 H   0  0  0  0  0  0  0  0  0  0  0  0
  -52.7291   -4.1617  -24.7239 H   0  0  0  0  0  0  0  0  0  0  0  0
  -53.2247   -1.7888  -24.7461 H   0  0  0  0  0  0  0  0  0  0  0  0
  1  2  2  0  0  0  0
  1 23  1  0  0  0  0
  2 13  1  0  0  0  0
  3  2  1  0  0  0  0
  3 39  1  0  0  0  0
  4  3  2  0  0  0  0
  5  6  1  0  0  0  0
  5  4  1  0  0  0  0
  7  5  1  0  0  0  0
  7 40  1  0  0  0  0
  8 10  1  0  0  0  0
  8  7  1  0  0  0  0
  9  8  1  0  0  0  0
 10 11  2  0  0  0  0
 11  4  1  0  0  0  0
 11 12  1  0  0  0  0
 12  1  1  0  0  0  0
 12 41  1  0  0  0  0
 13 14  1  0  0  0  0
 14 15  1  0  0  0  0
 14 42  1  0  0  0  0
 14 43  1  0  0  0  0
 15 16  1  0  0  0  0
 15 44  1  0  0  0  0
 15 45  1  0  0  0  0
 16 17  1  0  0  0  0
 16 46  1  0  0  0  0
 16 47  1  0  0  0  0
 17 22  1  0  0  0  0
 17 18  1  0  0  0  0
 18 19  1  0  0  0  0
 18 48  1  0  0  0  0
 18 49  1  0  0  0  0
 19 50  1  0  0  0  0
 19 51  1  0  0  0  0
 20 19  1  0  0  0  0
 21 22  1  0  0  0  0
 21 20  1  0  0  0  0
 21 52  1  0  0  0  0
 21 53  1  0  0  0  0
 22 54  1  0  0  0  0
 22 55  1  0  0  0  0
 23 26  1  0  0  0  0
 23 24  1  0  0  0  0
 24 27  1  0  0  0  0
 25 24  2  0  0  0  0
 27 56  1  0  0  0  0
 28 27  2  0  0  0  0
 28 57  1  0  0  0  0
 28 58  1  0  0  0  0
 29 31  1  0  0  0  0
 29 10  1  0  0  0  0
 30 29  1  0  0  0  0
 31 32  1  0  0  0  0
 32 33  2  0  0  0  0
 32 59  1  0  0  0  0
 33 35  1  0  0  0  0
 33 34  1  0  0  0  0
 35 36  1  0  0  0  0
 37 35  2  0  0  0  0
 37 60  1  0  0  0  0
 38 31  2  0  0  0  0
 38 37  1  0  0  0  0
 38 61  1  0  0  0  0
M  END
>  <REMARK>
 VINA RESULT:      -7.4      4.572      9.562
  9 active torsions:
  status: ('A' for Active; 'I' for Inactive)
    1  A    between atoms: C_2  and  C_3 
       I    between atoms: C_3  and  N_5 
    2  A    between atoms: N_5  and  C_7 
    3  A    between atoms: C_8  and  O_9 
    4  A    between atoms: O_9  and  C_10 
    5  A    between atoms: C_10  and  C_11 
    6  A    between atoms: C_11  and  C_12 
    7  A    between atoms: C_12  and  N_13 
    8  A    between atoms: C_26  and  N_27 
    9  A    between atoms: N_27  and  C_29 

>  <TORSDO>
F 9

$$$$
resistance_project/docking/8faf60323ce63d5a/P00533_T790M/docked/molecule_0008_out.pdbqt
 OpenBabel09142609543D

 61 64  0  0  0  0  0  0  0  0999 V2000
  -50.5080   -0.2610  -19.6980 C   0  0  0  0  0  0  0  0  0  0  0  0
  -51.3820    0.5910  -20.3380 C   0  0  0  0  0  0  0  0  0  0  0  0
  -52.0340    1.5700  -19.6270 C   0  0  0  0  0  0  0  0  0  0  0  0
  -51.8320    1.7140  -18.2870 C   0  0  0  0  0  0  0  0  0  0  0  0
  -52.5000    2.6890  -17.6510 N   0  0  0  0  0  0  0  0  0  0  0  0
  -53.1410    3.3050  -18.1510 H   0  0  0  0  0  0  0  0  0  0  0  0
  -52.2940    2.8230  -16.3310 C   0  0  0  0  0  0  0  0  0  0  0  0
  -51.4620    2.0380  -15.6290 N   0  0  0  0  0  0  0  0  0  0  0  0
  -51.3350    2.1750  -14.6260 H   0  0  0  0  0  0  0  0  0  0  0  0
  -50.8020    1.0680  -16.2810 C   0  0  0  0  0  0  0  0  0  0  0  0
  -50.9520    0.8550  -17.6430 C   0  0  0  0  0  0  0  0  0  0  0  0
  -50.2770   -0.1390  -18.3210 C   0  0  0  0  0  0  0  0  0  0  0  0
  -51.6510    0.5150  -21.7090 O   0  0  0  0  0  0  0  0  0  0  0  0
  -52.9440    0.7920  -22.2250 C   0  0  0  0  0  0  0  0  0  0  0  0
  -52.8270    1.1560  -23.6770 C   0  0  0  0  0  0  0  0  0  0  0  0
  -51.7720    0.2850  -24.3150 C   0  0  0  0  0  0  0  0  0  0  0  0
  -52.2850   -0.9570  -24.8320 N   0  0  0  0  0  0  0  0  0  0  0  0
  -52.1800   -1.0440  -26.2720 C   0  0  0  0  0  0  0  0  0  0  0  0
  -51.8870   -2.4910  -26.6890 C   0  0  0  0  0  0  0  0  0  0  0  0
  -50.6770   -2.9390  -26.1910 O   0  0  0  0  0  0  0  0  0  0  0  0
  -50.3460   -2.3520  -24.9630 C   0  0  0  0  0  0  0  0  0  0  0  0
  -51.6440   -2.0890  -24.2450 C   0  0  0  0  0  0  0  0  0  0  0  0
  -49.8550   -1.2580  -20.4780 N   0  0  0  0  0  0  0  0  0  0  0  0
  -50.3120   -2.5900  -20.6320 C   0  0  0  0  0  0  0  0  0  0  0  0
  -51.3770   -2.9420  -20.0580 O   0  0  0  0  0  0  0  0  0  0  0  0
  -48.9960   -0.9950  -20.9610 H   0  0  0  0  0  0  0  0  0  0  0  0
  -49.5240   -3.5020  -21.4530 C   0  0  0  0  0  0  0  0  0  0  0  0
  -49.2390   -4.7220  -21.0270 C   0  0  0  0  0  0  0  0  0  0  0  0
  -49.9230    0.2370  -15.5300 N   0  0  0  0  0  0  0  0  0  0  0  0
  -48.9280    0.4560  -15.4720 H   0  0  0  0  0  0  0  0  0  0  0  0
  -50.4520   -0.9110  -14.8560 C   0  0  0  0  0  0  0  0  0  0  0  0
  -51.1800   -0.6540  -13.6990 C   0  0  0  0  0  0  0  0  0  0  0  0
  -51.7180   -1.7250  -13.0040 C   0  0  0  0  0  0  0  0  0  0  0  0
  -52.6560   -1.4850  -11.5240 Cl  0  0  0  0  0  0  0  0  0  0  0  0
  -51.5170   -3.0160  -13.4770 C   0  0  0  0  0  0  0  0  0  0  0  0
  -52.0580   -4.0370  -12.7700 F   0  0  0  0  0  0  0  0  0  0  0  0
  -50.7940   -3.2290  -14.6170 C   0  0  0  0  0  0  0  0  0  0  0  0
  -50.2480   -2.1710  -15.3280 C   0  0  0  0  0  0  0  0  0  0  0  0
  -52.6855    2.2047  -20.1146 H   0  0  0  0  0  0  0  0  0  0  0  0
  -53.2547    2.7153  -15.8724 H   0  0  0  0  0  0  0  0  0  0  0  0
  -49.2301    0.0370  -18.1870 H   0  0  0  0  0  0  0  0  0  0  0  0
  -53.5639   -0.0740  -22.1217 H   0  0  0  0  0  0  0  0  0  0  0  0
  -53.3810    1.6052  -21.6840 H   0  0  0  0  0  0  0  0  0  0  0  0
  -53.7665    0.9976  -24.1640 H   0  0  0  0  0  0  0  0  0  0  0  0
  -52.5533    2.1860  -23.7720 H   0  0  0  0  0  0  0  0  0  0  0  0
  -51.3268    0.8290  -25.1217 H   0  0  0  0  0  0  0  0  0  0  0  0
  -51.0647    0.0384  -23.5509 H   0  0  0  0  0  0  0  0  0  0  0  0
  -53.1013   -0.7271  -26.7145 H   0  0  0  0  0  0  0  0  0  0  0  0
  -51.3823   -0.4135  -26.6052 H   0  0  0  0  0  0  0  0  0  0  0  0
  -51.8618   -2.5442  -27.7574 H   0  0  0  0  0  0  0  0  0  0  0  0
  -52.6599   -3.1132  -26.2885 H   0  0  0  0  0  0  0  0  0  0  0  0
  -49.8204   -1.4338  -25.1229 H   0  0  0  0  0  0  0  0  0  0  0  0
  -49.7114   -2.9938  -24.3883 H   0  0  0  0  0  0  0  0  0  0  0  0
  -51.4478   -1.8930  -23.2116 H   0  0  0  0  0  0  0  0  0  0  0  0
  -52.2803   -2.9452  -24.3282 H   0  0  0  0  0  0  0  0  0  0  0  0
  -49.1846   -3.1923  -22.3771 H   0  0  0  0  0  0  0  0  0  0  0  0
  -49.5753   -5.0379  -20.1039 H   0  0  0  0  0  0  0  0  0  0  0  0
  -48.6804   -5.3575  -21.6179 H   0  0  0  0  0  0  0  0  0  0  0  0
  -51.3164    0.3131  -13.3656 H   0  0  0  0  0  0  0  0  0  0  0  0
  -50.6519   -4.1938  -14.9545 H   0  0  0  0  0  0  0  0  0  0  0  0
  -49.7033   -2.3342  -16.1892 H   0  0  0  0  0  0  0  0  0  0  0  0
  1 12  1  0  0  0  0
  2  1  2  0  0  0  0
  2  3  1  0  0  0  0
  3  4  2  0  0  0  0
  3 39  1  0  0  0  0
  4  5  1  0  0  0  0
  4 11  1  0  0  0  0
  5  7  1  0  0  0  0
  6  5  1  0  0  0  0
  7  8  1  0  0  0  0
  7 40  1  0  0  0  0
  8  9  1  0  0  0  0
 10  8  1  0  0  0  0
 10 29  1  0  0  0  0
 11 10  2  0  0  0  0
 12 11  1  0  0  0  0
 12 41  1  0  0  0  0
 13  2  1  0  0  0  0
 14 13  1  0  0  0  0
 14 42  1  0  0  0  0
 14 43  1  0  0  0  0
 15 14  1  0  0  0  0
 15 44  1  0  0  0  0
 15 45  1  0  0  0  0
 16 15  1  0  0  0  0
 16 46  1  0  0  0  0
 16 47  1  0  0  0  0
 17 16  1  0  0  0  0
 17 22  1  0  0  0  0
 18 17  1  0  0  0  0
 18 48  1  0  0  0  0
 18 49  1  0  0  0  0
 19 18  1  0  0  0  0
 19 20  1  0  0  0  0
 19 50  1  0  0  0  0
 19 51  1  0  0  0  0
 20 21  1  0  0  0  0
 21 22  1  0  0  0  0
 21 52  1  0  0  0  0
 21 53  1  0  0  0  0
 22 54  1  0  0  0  0
 22 55  1  0  0  0  0
 23  1  1  0  0  0  0
 24 23  1  0  0  0  0
 24 25  2  0  0  0  0
 26 23  1  0  0  0  0
 27 28  2  0  0  0  0
 27 24  1  0  0  0  0
 27 56  1  0  0  0  0
 28 57  1  0  0  0  0
 28 58  1  0  0  0  0
 29 30  1  0  0  0  0
 29 31  1  0  0  0  0
 31 32  1  0  0  0  0
 32 33  2  0  0  0  0
 32 59  1  0  0  0  0
 33 34  1  0  0  0  0
 35 33  1  0  0  0  0
 35 36  1  0  0  0  0
 37 35  2  0  0  0  0
 37 60  1  0  0  0  0
 38 31  2  0  0  0  0
 38 37  1  0  0  0  0
 38 61  1  0  0  0  0
M  END
>  <REMARK>
 VINA RESULT:      -7.3      3.065      4.686
  9 active torsions:
  status: ('A' for Active; 'I' for Inactive)
    1  A    between atoms: C_2  and  C_3 
       I    between atoms: C_3  and  N_5 
    2  A    between atoms: N_5  and  C_7 
    3  A    between atoms: C_8  and  O_9 
    4  A    between atoms: O_9  and  C_10 
    5  A    between atoms: C_10  and  C_11 
    6  A    between atoms: C_11  and  C_12 
    7  A    between atoms: C_12  and  N_13 
    8  A    between atoms: C_26  and  N_27 
    9  A    between atoms: N_27  and  C_29 

>  <TORSDO>
F 9

$$$$
resistance_project/docking/8faf60323ce63d5a/P00533_T790M/docked/molecule_0008_out.pdbqt
 OpenBabel09142609543D

 61 64  0  0  0  0  0  0  0  0999 V2000
  -48.8070   -0.5440  -17.9970 C   0  0  0  0  0  0  0  0  0  0  0  0
  -48.5110   -0.4840  -19.3420 C   0  0  0  0  0  0  0  0  0  0  0  0
  -49.3590    0.1660  -20.2060 C   0  0  0  0  0  0  0  0  0  0  0  0
  -50.5000    0.7580  -19.7530 C   0  0  0  0  0  0  0  0  0  0  0  0
  -51.2860    1.3760  -20.6480 N   0  0  0  0  0  0  0  0  0  0  0  0
  -51.0410    1.4050  -21.6370 H   0  0  0  0  0  0  0  0  0  0  0  0
  -52.4090    1.9560  -20.1920 C   0  0  0  0  0  0  0  0  0  0  0  0
  -52.7730    1.9460  -18.9000 N   0  0  0  0  0  0  0  0  0  0  0  0
  -53.6350    2.4000  -18.5970 H   0  0  0  0  0  0  0  0  0  0  0  0
  -51.9760    1.3230  -18.0190 C   0  0  0  0  0  0  0  0  0  0  0  0
  -50.7980    0.6960  -18.3980 C   0  0  0  0  0  0  0  0  0  0  0  0
  -49.9720    0.0550  -17.4990 C   0  0  0  0  0  0  0  0  0  0  0  0
  -47.3630   -1.0640  -19.8940 O   0  0  0  0  0  0  0  0  0  0  0  0
  -47.2120   -1.2110  -21.2980 C   0  0  0  0  0  0  0  0  0  0  0  0
  -47.0920   -2.6710  -21.6300 C   0  0  0  0  0  0  0  0  0  0  0  0
  -48.0580   -3.0000  -22.7420 C   0  0  0  0  0  0  0  0  0  0  0  0
  -49.4330   -2.7300  -22.4110 N   0  0  0  0  0  0  0  0  0  0  0  0
  -50.1650   -2.1480  -23.5150 C   0  0  0  0  0  0  0  0  0  0  0  0
  -51.6160   -2.6490  -23.5020 C   0  0  0  0  0  0  0  0  0  0  0  0
  -51.6910   -4.0190  -23.6750 O   0  0  0  0  0  0  0  0  0  0  0  0
  -50.5820   -4.6940  -23.1490 C   0  0  0  0  0  0  0  0  0  0  0  0
  -50.1160   -3.8980  -21.9580 C   0  0  0  0  0  0  0  0  0  0  0  0
  -47.8950   -1.2280  -17.1420 N   0  0  0  0  0  0  0  0  0  0  0  0
  -47.9380   -2.6160  -16.8640 C   0  0  0  0  0  0  0  0  0  0  0  0
  -48.8270   -3.3230  -17.4070 O   0  0  0  0  0  0  0  0  0  0  0  0
  -47.1590   -0.6790  -16.6980 H   0  0  0  0  0  0  0  0  0  0  0  0
  -46.9430   -3.1700  -15.9530 C   0  0  0  0  0  0  0  0  0  0  0  0
  -46.0540   -4.0530  -16.3770 C   0  0  0  0  0  0  0  0  0  0  0  0
  -52.3700    1.3140  -16.6510 N   0  0  0  0  0  0  0  0  0  0  0  0
  -52.9740    0.5740  -16.2930 H   0  0  0  0  0  0  0  0  0  0  0  0
  -51.9100    2.3560  -15.7830 C   0  0  0  0  0  0  0  0  0  0  0  0
  -52.3980    3.6310  -16.0520 C   0  0  0  0  0  0  0  0  0  0  0  0
  -51.9890    4.6790  -15.2460 C   0  0  0  0  0  0  0  0  0  0  0  0
  -52.5620    6.3300  -15.5200 Cl  0  0  0  0  0  0  0  0  0  0  0  0
  -51.1080    4.4340  -14.1990 C   0  0  0  0  0  0  0  0  0  0  0  0
  -50.7310    5.4850  -13.4330 F   0  0  0  0  0  0  0  0  0  0  0  0
  -50.6490    3.1680  -13.9660 C   0  0  0  0  0  0  0  0  0  0  0  0
  -51.0470    2.1040  -14.7610 C   0  0  0  0  0  0  0  0  0  0  0  0
  -49.1289    0.2065  -21.2112 H   0  0  0  0  0  0  0  0  0  0  0  0
  -53.2140    1.4967  -20.7268 H   0  0  0  0  0  0  0  0  0  0  0  0
  -50.5487   -0.7123  -17.0261 H   0  0  0  0  0  0  0  0  0  0  0  0
  -48.0656   -0.7996  -21.7951 H   0  0  0  0  0  0  0  0  0  0  0  0
  -46.3326   -0.6946  -21.6217 H   0  0  0  0  0  0  0  0  0  0  0  0
  -46.0929   -2.8865  -21.9466 H   0  0  0  0  0  0  0  0  0  0  0  0
  -47.3197   -3.2594  -20.7658 H   0  0  0  0  0  0  0  0  0  0  0  0
  -47.7963   -2.4175  -23.6006 H   0  0  0  0  0  0  0  0  0  0  0  0
  -47.9801   -4.0516  -22.9238 H   0  0  0  0  0  0  0  0  0  0  0  0
  -50.1569   -1.0820  -23.4233 H   0  0  0  0  0  0  0  0  0  0  0  0
  -49.7014   -2.4354  -24.4355 H   0  0  0  0  0  0  0  0  0  0  0  0
  -52.0614   -2.3942  -22.5631 H   0  0  0  0  0  0  0  0  0  0  0  0
  -52.1343   -2.1837  -24.3143 H   0  0  0  0  0  0  0  0  0  0  0  0
  -49.8040   -4.7518  -23.8813 H   0  0  0  0  0  0  0  0  0  0  0  0
  -50.8380   -5.6940  -22.8674 H   0  0  0  0  0  0  0  0  0  0  0  0
  -49.4522   -4.4939  -21.3671 H   0  0  0  0  0  0  0  0  0  0  0  0
  -50.9594   -3.6131  -21.3644 H   0  0  0  0  0  0  0  0  0  0  0  0
  -46.9323   -2.8696  -14.9658 H   0  0  0  0  0  0  0  0  0  0  0  0
  -46.0591   -4.3577  -17.3630 H   0  0  0  0  0  0  0  0  0  0  0  0
  -45.3553   -4.4372  -15.7218 H   0  0  0  0  0  0  0  0  0  0  0  0
  -53.0505    3.7916  -16.8352 H   0  0  0  0  0  0  0  0  0  0  0  0
  -49.9952    3.0011  -13.1852 H   0  0  0  0  0  0  0  0  0  0  0  0
  -50.6991    1.1489  -14.5830 H   0  0  0  0  0  0  0  0  0  0  0  0
  1 12  1  0  0  0  0
  1 23  1  0  0  0  0
  2  1  2  0  0  0  0
  3  4  2  0  0  0  0
  3  2  1  0  0  0  0
  3 39  1  0  0  0  0
  4 11  1  0  0  0  0
  5  7  1  0  0  0  0
  5  4  1  0  0  0  0
  6  5  1  0  0  0  0
  7  8  1  0  0  0  0
  7 40  1  0  0  0  0
  8  9  1  0  0  0  0
  8 10  1  0  0  0  0
 10 29  1  0  0  0  0
 11 10  2  0  0  0  0
 11 12  1  0  0  0  0
 12 41  1  0  0  0  0
 13  2  1  0  0  0  0
 14 13  1  0  0  0  0
 14 42  1  0  0  0  0
 14 43  1  0  0  0  0
 15 14  1  0  0  0  0
 15 44  1  0  0  0  0
 15 45  1  0  0  0  0
 16 17  1  0  0  0  0
 16 15  1  0  0  0  0
 16 46  1  0  0  0  0
 16 47  1  0  0  0  0
 17 22  1  0  0  0  0
 18 19  1  0  0  0  0
 18 17  1  0  0  0  0
 18 48  1  0  0  0  0
 18 49  1  0  0  0  0
 19 50  1  0  0  0  0
 19 51  1  0  0  0  0
 20 19  1  0  0  0  0
 20 21  1  0  0  0  0
 21 22  1  0  0  0  0
 21 52  1  0  0  0  0
 21 53  1  0  0  0  0
 22 54  1  0  0  0  0
 22 55  1  0  0  0  0
 23 24  1  0  0  0  0
 23 26  1  0  0  0  0
 24 27  1  0  0  0  0
 25 24  2  0  0  0  0
 27 56  1  0  0  0  0
 28 27  2  0  0  0  0
 28 57  1  0  0  0  0
 28 58  1  0  0  0  0
 29 30  1  0  0  0  0
 29 31  1  0  0  0  0
 31 38  1  0  0  0  0
 32 31  2  0  0  0  0
 32 33  1  0  0  0  0
 32 59  1  0  0  0  0
 33 35  2  0  0  0  0
 34 33  1  0  0  0  0
 35 37  1  0  0  0  0
 35 36  1  0  0  0  0
 37 60  1  0  0  0  0
 38 37  2  0  0  0  0
 38 61  1  0  0  0  0
M  END
>  <REMARK>
 VINA RESULT:      -7.3      2.258      4.368
  9 active torsions:
  status: ('A' for Active; 'I' for Inactive)
    1  A    between atoms: C_2  and  C_3 
       I    between atoms: C_3  and  N_5 
    2  A    between atoms: N_5  and  C_7 
    3  A    between atoms: C_8  and  O_9 
    4  A    between atoms: O_9  and  C_10 
    5  A    between atoms: C_10  and  C_11 
    6  A    between atoms: C_11  and  C_12 
    7  A    between atoms: C_12  and  N_13 
    8  A    between atoms: C_26  and  N_27 
    9  A    between atoms: N_27  and  C_29 

>  <TORSDO>
F 9

$$$$
resistance_project/docking/8faf60323ce63d5a/P00533_T790M/docked/molecule_0008_out.pdbqt
 OpenBabel09142609543D

 61 64  0  0  0  0  0  0  0  0999 V2000
  -51.3860    1.0640  -19.5560 C   0  0  0  0  0  0  0  0  0  0  0  0
  -50.2810    0.3220  -19.9110 C   0  0  0  0  0  0  0  0  0  0  0  0
  -49.4300   -0.1540  -18.9420 C   0  0  0  0  0  0  0  0  0  0  0  0
  -49.6610    0.0990  -17.6230 C   0  0  0  0  0  0  0  0  0  0  0  0
  -48.7920   -0.3940  -16.7270 N   0  0  0  0  0  0  0  0  0  0  0  0
  -47.9820   -0.9400  -17.0190 H   0  0  0  0  0  0  0  0  0  0  0  0
  -49.0280   -0.1390  -15.4290 C   0  0  0  0  0  0  0  0  0  0  0  0
  -50.0790    0.5750  -14.9950 N   0  0  0  0  0  0  0  0  0  0  0  0
  -50.2200    0.7440  -13.9990 H   0  0  0  0  0  0  0  0  0  0  0  0
  -50.9380    1.0590  -15.9050 C   0  0  0  0  0  0  0  0  0  0  0  0
  -50.7740    0.8480  -17.2660 C   0  0  0  0  0  0  0  0  0  0  0  0
  -51.6520    1.3420  -18.2090 C   0  0  0  0  0  0  0  0  0  0  0  0
  -49.9650    0.0150  -21.2400 O   0  0  0  0  0  0  0  0  0  0  0  0
  -50.3950   -1.1960  -21.8410 C   0  0  0  0  0  0  0  0  0  0  0  0
  -49.2170   -2.1140  -21.9960 C   0  0  0  0  0  0  0  0  0  0  0  0
  -49.4090   -3.3120  -21.0980 C   0  0  0  0  0  0  0  0  0  0  0  0
  -48.2010   -3.7430  -20.4450 N   0  0  0  0  0  0  0  0  0  0  0  0
  -47.3630   -2.6360  -20.0400 C   0  0  0  0  0  0  0  0  0  0  0  0
  -46.6540   -2.9710  -18.7210 C   0  0  0  0  0  0  0  0  0  0  0  0
  -47.5510   -3.1670  -17.6870 O   0  0  0  0  0  0  0  0  0  0  0  0
  -48.7730   -3.6950  -18.1230 C   0  0  0  0  0  0  0  0  0  0  0  0
  -48.4680   -4.5680  -19.3110 C   0  0  0  0  0  0  0  0  0  0  0  0
  -52.2390    1.5340  -20.5970 N   0  0  0  0  0  0  0  0  0  0  0  0
  -53.4610    0.9260  -20.9740 C   0  0  0  0  0  0  0  0  0  0  0  0
  -53.8530   -0.0990  -20.3550 O   0  0  0  0  0  0  0  0  0  0  0  0
  -51.9490    2.3680  -21.1060 H   0  0  0  0  0  0  0  0  0  0  0  0
  -54.2180    1.5160  -22.0720 C   0  0  0  0  0  0  0  0  0  0  0  0
  -53.8190    1.3690  -23.3250 C   0  0  0  0  0  0  0  0  0  0  0  0
  -52.0490    1.8180  -15.4380 N   0  0  0  0  0  0  0  0  0  0  0  0
  -52.9750    1.3960  -15.3820 H   0  0  0  0  0  0  0  0  0  0  0  0
  -51.8490    3.1820  -15.0480 C   0  0  0  0  0  0  0  0  0  0  0  0
  -51.0480    3.3830  -13.9290 C   0  0  0  0  0  0  0  0  0  0  0  0
  -50.8180    4.6800  -13.5040 C   0  0  0  0  0  0  0  0  0  0  0  0
  -49.8120    5.0220  -12.0900 Cl  0  0  0  0  0  0  0  0  0  0  0  0
  -51.3880    5.7390  -14.2010 C   0  0  0  0  0  0  0  0  0  0  0  0
  -51.1400    6.9930  -13.7550 F   0  0  0  0  0  0  0  0  0  0  0  0
  -52.1710    5.5020  -15.2960 C   0  0  0  0  0  0  0  0  0  0  0  0
  -52.4130    4.2110  -15.7380 C   0  0  0  0  0  0  0  0  0  0  0  0
  -48.6054   -0.7102  -19.2170 H   0  0  0  0  0  0  0  0  0  0  0  0
  -48.1589    0.3701  -15.0679 H   0  0  0  0  0  0  0  0  0  0  0  0
  -52.6191    0.9425  -17.9853 H   0  0  0  0  0  0  0  0  0  0  0  0
  -51.1325   -1.6614  -21.2210 H   0  0  0  0  0  0  0  0  0  0  0  0
  -50.8201   -0.9904  -22.8012 H   0  0  0  0  0  0  0  0  0  0  0  0
  -48.3210   -1.5983  -21.7201 H   0  0  0  0  0  0  0  0  0  0  0  0
  -49.1378   -2.4332  -23.0142 H   0  0  0  0  0  0  0  0  0  0  0  0
  -49.7809   -4.1221  -21.6899 H   0  0  0  0  0  0  0  0  0  0  0  0
  -50.0941   -3.0210  -20.3294 H   0  0  0  0  0  0  0  0  0  0  0  0
  -47.9682   -1.7639  -19.9056 H   0  0  0  0  0  0  0  0  0  0  0  0
  -46.6293   -2.4548  -20.7975 H   0  0  0  0  0  0  0  0  0  0  0  0
  -46.0018   -2.1626  -18.4642 H   0  0  0  0  0  0  0  0  0  0  0  0
  -46.1067   -3.8797  -18.8610 H   0  0  0  0  0  0  0  0  0  0  0  0
  -49.2226   -4.2754  -17.3446 H   0  0  0  0  0  0  0  0  0  0  0  0
  -49.4578   -2.9154  -18.3840 H   0  0  0  0  0  0  0  0  0  0  0  0
  -47.6114   -5.1734  -19.0995 H   0  0  0  0  0  0  0  0  0  0  0  0
  -49.3064   -5.2003  -19.5165 H   0  0  0  0  0  0  0  0  0  0  0  0
  -55.0748    2.0544  -21.8694 H   0  0  0  0  0  0  0  0  0  0  0  0
  -52.9631    0.8318  -23.5343 H   0  0  0  0  0  0  0  0  0  0  0  0
  -54.3637    1.7916  -24.0929 H   0  0  0  0  0  0  0  0  0  0  0  0
  -50.6340    2.5824  -13.4264 H   0  0  0  0  0  0  0  0  0  0  0  0
  -52.5892    6.2981  -15.8023 H   0  0  0  0  0  0  0  0  0  0  0  0
  -53.0034    4.0349  -16.5659 H   0  0  0  0  0  0  0  0  0  0  0  0
  1 12  1  0  0  0  0
  2  1  2  0  0  0  0
  2  3  1  0  0  0  0
  3  4  2  0  0  0  0
  3 39  1  0  0  0  0
  4 11  1  0  0  0  0
  4  5  1  0  0  0  0
  5  7  1  0  0  0  0
  6  5  1  0  0  0  0
  7  8  1  0  0  0  0
  7 40  1  0  0  0  0
  8  9  1  0  0  0  0
 10 29  1  0  0  0  0
 10  8  1  0  0  0  0
 11 10  2  0  0  0  0
 12 11  1  0  0  0  0
 12 41  1  0  0  0  0
 13  2  1  0  0  0  0
 14 13  1  0  0  0  0
 14 42  1  0  0  0  0
 14 43  1  0  0  0  0
 15 14  1  0  0  0  0
 15 16  1  0  0  0  0
 15 44  1  0  0  0  0
 15 45  1  0  0  0  0
 16 17  1  0  0  0  0
 16 46  1  0  0  0  0
 16 47  1  0  0  0  0
 17 18  1  0  0  0  0
 17 22  1  0  0  0  0
 18 19  1  0  0  0  0
 18 48  1  0  0  0  0
 18 49  1  0  0  0  0
 19 20  1  0  0  0  0
 19 50  1  0  0  0  0
 19 51  1  0  0  0  0
 21 20  1  0  0  0  0
 21 52  1  0  0  0  0
 21 53  1  0  0  0  0
 22 21  1  0  0  0  0
 22 54  1  0  0  0  0
 22 55  1  0  0  0  0
 23  1  1  0  0  0  0
 24 23  1  0  0  0  0
 24 25  2  0  0  0  0
 26 23  1  0  0  0  0
 27 24  1  0  0  0  0
 27 56  1  0  0  0  0
 28 27  2  0  0  0  0
 28 57  1  0  0  0  0
 28 58  1  0  0  0  0
 29 30  1  0  0  0  0
 29 31  1  0  0  0  0
 31 32  2  0  0  0  0
 32 33  1  0  0  0  0
 32 59  1  0  0  0  0
 33 34  1  0  0  0  0
 35 36  1  0  0  0  0
 35 33  2  0  0  0  0
 37 35  1  0  0  0  0
 37 60  1  0  0  0  0
 38 37  2  0  0  0  0
 38 31  1  0  0  0  0
 38 61  1  0  0  0  0
M  END
>  <REMARK>
 VINA RESULT:      -7.2      1.972      3.129
  9 active torsions:
  status: ('A' for Active; 'I' for Inactive)
    1  A    between atoms: C_2  and  C_3 
       I    between atoms: C_3  and  N_5 
    2  A    between atoms: N_5  and  C_7 
    3  A    between atoms: C_8  and  O_9 
    4  A    between atoms: O_9  and  C_10 
    5  A    between atoms: C_10  and  C_11 
    6  A    between atoms: C_11  and  C_12 
    7  A    between atoms: C_12  and  N_13 
    8  A    between atoms: C_26  and  N_27 
    9  A    between atoms: N_27  and  C_29 

>  <TORSDO>
F 9

$$$$
