resistance_project/docking/8faf60323ce63d5a/P00533_T790M/docked/molecule_0005_out.pdbqt
 OpenBabel09142609533D

 71 75  0  0  1  0  0  0  0  0999 V2000
  -48.9790   -0.5530  -18.1250 C   0  0  0  0  0  0  0  0  0  0  0  0
  -48.6320   -0.5110  -19.4540 C   0  0  0  0  0  0  0  0  0  0  0  0
  -49.4680    0.2030  -20.2990 C   0  0  0  0  0  0  0  0  0  0  0  0
  -50.5780    0.8260  -19.8060 C   0  0  0  0  0  0  0  0  0  0  0  0
  -51.3790    1.5110  -20.6200 N   0  0  0  0  0  0  0  0  0  0  0  0
  -51.1390    1.5540  -21.6100 H   0  0  0  0  0  0  0  0  0  0  0  0
  -52.4880    2.1490  -20.2050 C   0  0  0  0  0  0  0  0  0  0  0  0
  -52.7830    2.0750  -18.8930 N   0  0  0  0  0  0  0  0  0  0  0  0
  -53.6210    2.5530  -18.5610 H   0  0  0  0  0  0  0  0  0  0  0  0
  -52.0370    1.4090  -17.9970 C   0  0  0  0  0  0  0  0  0  0  0  0
  -50.9080    0.7700  -18.4660 C   0  0  0  0  0  0  0  0  0  0  0  0
  -50.0970    0.0700  -17.6060 C   0  0  0  0  0  0  0  0  0  0  0  0
  -47.5020   -1.1640  -19.8560 O   0  0  0  0  0  0  0  0  0  0  0  0
  -47.0710   -1.3730  -21.1700 C   0  0  0  0  0  0  0  0  0  0  0  0
  -47.4020   -2.7770  -21.6640 C   0  0  2  0  0  0  0  0  0  0  0  0
  -48.7130   -2.6710  -22.3930 C   0  0  0  0  0  0  0  0  0  0  0  0
  -49.1360   -3.9270  -22.9270 N   0  0  0  0  0  0  0  0  0  0  0  0
  -48.6300   -5.0900  -22.2720 C   0  0  0  0  0  0  0  0  0  0  0  0
  -48.3360   -4.8700  -20.8320 C   0  0  0  0  0  0  0  0  0  0  0  0
  -48.6520   -5.7110  -19.9340 O   0  0  0  0  0  0  0  0  0  0  0  0
  -47.6690   -3.6410  -20.5040 N   0  0  0  0  0  0  0  0  0  0  0  0
  -47.4050   -3.3900  -19.5510 H   0  0  0  0  0  0  0  0  0  0  0  0
  -50.5870   -3.9630  -23.0190 C   0  0  0  0  0  0  0  0  0  0  0  0
  -51.0080   -3.4940  -24.3550 C   0  0  0  0  0  0  0  0  0  0  0  0
  -51.6090   -2.3440  -24.6130 C   0  0  0  0  0  0  0  0  0  0  0  0
  -51.8770   -1.3640  -23.5240 C   0  0  0  0  0  0  0  0  0  0  0  0
  -51.9960   -2.0910  -26.0360 C   0  0  0  0  0  0  0  0  0  0  0  0
  -51.3500   -0.0180  -23.9640 C   0  0  0  0  0  0  0  0  0  0  0  0
  -50.9800    0.0380  -25.4180 C   0  0  0  0  0  0  0  0  0  0  0  0
  -52.0150   -0.6030  -26.3130 C   0  0  0  0  0  0  0  0  0  0  0  0
  -48.1650   -1.2620  -17.2290 O   0  0  0  0  0  0  0  0  0  0  0  0
  -48.4930   -2.5320  -16.7570 C   0  0  0  0  0  0  0  0  0  0  0  0
  -52.3540    1.3360  -16.6110 N   0  0  0  0  0  0  0  0  0  0  0  0
  -52.8440    0.5290  -16.2270 H   0  0  0  0  0  0  0  0  0  0  0  0
  -51.9670    2.4240  -15.7790 C   0  0  0  0  0  0  0  0  0  0  0  0
  -52.4590    3.6890  -15.9540 C   0  0  0  0  0  0  0  0  0  0  0  0
  -52.1020    4.7710  -15.1590 C   0  0  0  0  0  0  0  0  0  0  0  0
  -52.7530    6.3760  -15.4140 Cl  0  0  0  0  0  0  0  0  0  0  0  0
  -51.2000    4.5310  -14.1440 C   0  0  0  0  0  0  0  0  0  0  0  0
  -50.6910    5.8390  -13.0910 Cl  0  0  0  0  0  0  0  0  0  0  0  0
  -50.6670    3.2720  -13.9180 C   0  0  0  0  0  0  0  0  0  0  0  0
  -51.0630    2.2230  -14.7480 C   0  0  0  0  0  0  0  0  0  0  0  0
  -49.2499    0.2637  -21.3059 H   0  0  0  0  0  0  0  0  0  0  0  0
  -53.3163    1.7405  -20.7453 H   0  0  0  0  0  0  0  0  0  0  0  0
  -50.6985   -0.6874  -17.1484 H   0  0  0  0  0  0  0  0  0  0  0  0
  -47.5505   -0.6604  -21.8082 H   0  0  0  0  0  0  0  0  0  0  0  0
  -46.0074   -1.2578  -21.1909 H   0  0  0  0  0  0  0  0  0  0  0  0
  -46.6038   -3.1625  -22.2633 H   0  0  0  0  0  0  0  0  0  0  0  0
  -49.4586   -2.3174  -21.7118 H   0  0  0  0  0  0  0  0  0  0  0  0
  -48.5806   -1.9939  -23.2108 H   0  0  0  0  0  0  0  0  0  0  0  0
  -47.7270   -5.3901  -22.7614 H   0  0  0  0  0  0  0  0  0  0  0  0
  -49.3882   -5.8428  -22.3302 H   0  0  0  0  0  0  0  0  0  0  0  0
  -50.9290   -4.9657  -22.8690 H   0  0  0  0  0  0  0  0  0  0  0  0
  -51.0076   -3.3264  -22.2689 H   0  0  0  0  0  0  0  0  0  0  0  0
  -50.8170   -4.1166  -25.1555 H   0  0  0  0  0  0  0  0  0  0  0  0
  -51.3804   -1.6727  -22.6279 H   0  0  0  0  0  0  0  0  0  0  0  0
  -52.9273   -1.3051  -23.3284 H   0  0  0  0  0  0  0  0  0  0  0  0
  -51.2877   -2.5627  -26.6846 H   0  0  0  0  0  0  0  0  0  0  0  0
  -52.9725   -2.4922  -26.2101 H   0  0  0  0  0  0  0  0  0  0  0  0
  -52.1047    0.7175  -23.7787 H   0  0  0  0  0  0  0  0  0  0  0  0
  -50.4558    0.1659  -23.4059 H   0  0  0  0  0  0  0  0  0  0  0  0
  -50.8701    1.0634  -25.7031 H   0  0  0  0  0  0  0  0  0  0  0  0
  -50.0682   -0.5087  -25.5387 H   0  0  0  0  0  0  0  0  0  0  0  0
  -52.9836   -0.2032  -26.0962 H   0  0  0  0  0  0  0  0  0  0  0  0
  -51.7964   -0.4081  -27.3421 H   0  0  0  0  0  0  0  0  0  0  0  0
  -47.7290   -2.8729  -16.0899 H   0  0  0  0  0  0  0  0  0  0  0  0
  -48.5745   -3.2089  -17.5816 H   0  0  0  0  0  0  0  0  0  0  0  0
  -49.4273   -2.4890  -16.2372 H   0  0  0  0  0  0  0  0  0  0  0  0
  -53.1329    3.8481  -16.7193 H   0  0  0  0  0  0  0  0  0  0  0  0
  -49.9925    3.1140  -13.1531 H   0  0  0  0  0  0  0  0  0  0  0  0
  -50.6754    1.2795  -14.5913 H   0  0  0  0  0  0  0  0  0  0  0  0
  1 12  1  0  0  0  0
  1 31  1  0  0  0  0
  2  1  2  0  0  0  0
  3  4  2  0  0  0  0
  3  2  1  0  0  0  0
  3 43  1  0  0  0  0
  4 11  1  0  0  0  0
  5  7  1  0  0  0  0
  5  4  1  0  0  0  0
  6  5  1  0  0  0  0
  7  8  1  0  0  0  0
  7 44  1  0  0  0  0
  8  9  1  0  0  0  0
  8 10  1  0  0  0  0
 10 33  1  0  0  0  0
 11 10  2  0  0  0  0
 11 12  1  0  0  0  0
 12 45  1  0  0  0  0
 13  2  1  0  0  0  0
 14 13  1  0  0  0  0
 14 46  1  0  0  0  0
 14 47  1  0  0  0  0
 15 14  1  0  0  0  0
 15 21  1  0  0  0  0
 15 48  1  6  0  0  0
 16 15  1  0  0  0  0
 16 49  1  0  0  0  0
 16 50  1  0  0  0  0
 17 16  1  0  0  0  0
 17 18  1  0  0  0  0
 18 19  1  0  0  0  0
 18 51  1  0  0  0  0
 18 52  1  0  0  0  0
 19 21  1  0  0  0  0
 19 20  2  0  0  0  0
 21 22  1  0  0  0  0
 23 17  1  0  0  0  0
 23 53  1  0  0  0  0
 23 54  1  0  0  0  0
 24 23  1  0  0  0  0
 24 55  1  0  0  0  0
 25 24  2  0  0  0  0
 25 26  1  0  0  0  0
 26 56  1  0  0  0  0
 26 57  1  0  0  0  0
 27 25  1  0  0  0  0
 27 58  1  0  0  0  0
 27 59  1  0  0  0  0
 28 26  1  0  0  0  0
 28 60  1  0  0  0  0
 28 61  1  0  0  0  0
 29 28  1  0  0  0  0
 29 62  1  0  0  0  0
 29 63  1  0  0  0  0
 30 27  1  0  0  0  0
 30 29  1  0  0  0  0
 30 64  1  0  0  0  0
 30 65  1  0  0  0  0
 31 32  1  0  0  0  0
 32 66  1  0  0  0  0
 32 67  1  0  0  0  0
 32 68  1  0  0  0  0
 33 34  1  0  0  0  0
 33 35  1  0  0  0  0
 35 42  1  0  0  0  0
 36 35  2  0  0  0  0
 36 37  1  0  0  0  0
 36 69  1  0  0  0  0
 37 39  2  0  0  0  0
 38 37  1  0  0  0  0
 39 41  1  0  0  0  0
 39 40  1  0  0  0  0
 41 70  1  0  0  0  0
 42 41  2  0  0  0  0
 42 71  1  0  0  0  0
M  END
>  <MODEL>
1

>  <REMARK>
 VINA RESULT:      -9.0      0.000      0.000
  8 active torsions:
  status: ('A' for Active; 'I' for Inactive)
    1  A    between atoms: O_2  and  C_3 
    2  A    between atoms: C_4  and  O_5 
    3  A    between atoms: O_5  and  C_6 
    4  A    between atoms: C_6  and  C_7 
    5  A    between atoms: N_9  and  C_10 
    6  A    between atoms: C_10  and  C_11 
    7  A    between atoms: C_30  and  N_31 
    8  A    between atoms: N_31  and  C_33 

>  <TORSDO>
F 8

$$$$
resistance_project/docking/8faf60323ce63d5a/P00533_T790M/docked/molecule_0005_out.pdbqt
 OpenBabel09142609533D

 71 75  0  0  1  0  0  0  0  0999 V2000
  -48.9870   -0.3790  -17.8310 C   0  0  0  0  0  0  0  0  0  0  0  0
  -48.6300   -0.4250  -19.1570 C   0  0  0  0  0  0  0  0  0  0  0  0
  -49.4640    0.2250  -20.0540 C   0  0  0  0  0  0  0  0  0  0  0  0
  -50.5820    0.8720  -19.6130 C   0  0  0  0  0  0  0  0  0  0  0  0
  -51.3810    1.4960  -20.4770 N   0  0  0  0  0  0  0  0  0  0  0  0
  -51.1330    1.4730  -21.4660 H   0  0  0  0  0  0  0  0  0  0  0  0
  -52.4970    2.1520  -20.1140 C   0  0  0  0  0  0  0  0  0  0  0  0
  -52.8010    2.1660  -18.8030 N   0  0  0  0  0  0  0  0  0  0  0  0
  -53.6450    2.6590  -18.5100 H   0  0  0  0  0  0  0  0  0  0  0  0
  -52.0580    1.5660  -17.8580 C   0  0  0  0  0  0  0  0  0  0  0  0
  -50.9210    0.9050  -18.2740 C   0  0  0  0  0  0  0  0  0  0  0  0
  -50.1130    0.2690  -17.3630 C   0  0  0  0  0  0  0  0  0  0  0  0
  -47.4930   -1.0960  -19.5050 O   0  0  0  0  0  0  0  0  0  0  0  0
  -47.4040   -2.3940  -20.0170 C   0  0  0  0  0  0  0  0  0  0  0  0
  -46.8680   -2.4110  -21.4440 C   0  0  2  0  0  0  0  0  0  0  0  0
  -48.0690   -2.4610  -22.3470 C   0  0  0  0  0  0  0  0  0  0  0  0
  -47.7050   -2.4640  -23.7300 N   0  0  0  0  0  0  0  0  0  0  0  0
  -46.4030   -2.9630  -24.0340 C   0  0  0  0  0  0  0  0  0  0  0  0
  -45.9190   -3.9740  -23.0580 C   0  0  0  0  0  0  0  0  0  0  0  0
  -45.3310   -5.0410  -23.4140 O   0  0  0  0  0  0  0  0  0  0  0  0
  -46.1540   -3.6770  -21.6720 N   0  0  0  0  0  0  0  0  0  0  0  0
  -45.8550   -4.2890  -20.9140 H   0  0  0  0  0  0  0  0  0  0  0  0
  -48.7270   -3.1460  -24.5090 C   0  0  0  0  0  0  0  0  0  0  0  0
  -49.4680   -2.1590  -25.3210 C   0  0  0  0  0  0  0  0  0  0  0  0
  -50.6590   -1.6630  -25.0300 C   0  0  0  0  0  0  0  0  0  0  0  0
  -51.3570   -2.0480  -23.7720 C   0  0  0  0  0  0  0  0  0  0  0  0
  -51.2520   -0.7120  -26.0210 C   0  0  0  0  0  0  0  0  0  0  0  0
  -51.7880   -0.7810  -23.0680 C   0  0  0  0  0  0  0  0  0  0  0  0
  -51.6630    0.4510  -23.9170 C   0  0  0  0  0  0  0  0  0  0  0  0
  -52.1850    0.2530  -25.3210 C   0  0  0  0  0  0  0  0  0  0  0  0
  -48.1770   -1.0210  -16.8830 O   0  0  0  0  0  0  0  0  0  0  0  0
  -48.6920   -1.8500  -15.8880 C   0  0  0  0  0  0  0  0  0  0  0  0
  -52.3860    1.5850  -16.4730 N   0  0  0  0  0  0  0  0  0  0  0  0
  -52.8470    0.7900  -16.0320 H   0  0  0  0  0  0  0  0  0  0  0  0
  -52.0510    2.7480  -15.7220 C   0  0  0  0  0  0  0  0  0  0  0  0
  -51.2040    2.7040  -14.6480 C   0  0  0  0  0  0  0  0  0  0  0  0
  -50.8570    3.8200  -13.8960 C   0  0  0  0  0  0  0  0  0  0  0  0
  -49.7710    3.7250  -12.5270 Cl  0  0  0  0  0  0  0  0  0  0  0  0
  -51.4100    5.0250  -14.2720 C   0  0  0  0  0  0  0  0  0  0  0  0
  -51.0290    6.4870  -13.3800 Cl  0  0  0  0  0  0  0  0  0  0  0  0
  -52.2740    5.1320  -15.3520 C   0  0  0  0  0  0  0  0  0  0  0  0
  -52.5860    3.9780  -16.0710 C   0  0  0  0  0  0  0  0  0  0  0  0
  -49.2381    0.2196  -21.0610 H   0  0  0  0  0  0  0  0  0  0  0  0
  -53.3184    1.7010  -20.6305 H   0  0  0  0  0  0  0  0  0  0  0  0
  -50.7135   -0.4607  -16.8611 H   0  0  0  0  0  0  0  0  0  0  0  0
  -46.7478   -2.9662  -19.3950 H   0  0  0  0  0  0  0  0  0  0  0  0
  -48.3889   -2.8120  -20.0295 H   0  0  0  0  0  0  0  0  0  0  0  0
  -46.2324   -1.5677  -21.6165 H   0  0  0  0  0  0  0  0  0  0  0  0
  -48.6231   -3.3514  -22.1345 H   0  0  0  0  0  0  0  0  0  0  0  0
  -48.6549   -1.5847  -22.1633 H   0  0  0  0  0  0  0  0  0  0  0  0
  -45.7173   -2.1416  -24.0405 H   0  0  0  0  0  0  0  0  0  0  0  0
  -46.4627   -3.4454  -24.9872 H   0  0  0  0  0  0  0  0  0  0  0  0
  -48.2642   -3.8632  -25.1542 H   0  0  0  0  0  0  0  0  0  0  0  0
  -49.4048   -3.6453  -23.8486 H   0  0  0  0  0  0  0  0  0  0  0  0
  -49.0181   -1.8285  -26.1890 H   0  0  0  0  0  0  0  0  0  0  0  0
  -50.6926   -2.6039  -23.1440 H   0  0  0  0  0  0  0  0  0  0  0  0
  -52.2081   -2.6581  -23.9918 H   0  0  0  0  0  0  0  0  0  0  0  0
  -50.4673   -0.1627  -26.4979 H   0  0  0  0  0  0  0  0  0  0  0  0
  -51.8041   -1.2659  -26.7513 H   0  0  0  0  0  0  0  0  0  0  0  0
  -52.8118   -0.8879  -22.7758 H   0  0  0  0  0  0  0  0  0  0  0  0
  -51.1366   -0.6512  -22.2291 H   0  0  0  0  0  0  0  0  0  0  0  0
  -52.2168    1.2415  -23.4552 H   0  0  0  0  0  0  0  0  0  0  0  0
  -50.6216    0.6852  -23.9917 H   0  0  0  0  0  0  0  0  0  0  0  0
  -53.1743   -0.1534  -25.2891 H   0  0  0  0  0  0  0  0  0  0  0  0
  -52.2242    1.1858  -25.8437 H   0  0  0  0  0  0  0  0  0  0  0  0
  -47.8907   -2.2250  -15.2861 H   0  0  0  0  0  0  0  0  0  0  0  0
  -49.2121   -2.6687  -16.3397 H   0  0  0  0  0  0  0  0  0  0  0  0
  -49.3685   -1.2927  -15.2743 H   0  0  0  0  0  0  0  0  0  0  0  0
  -50.8008    1.7920  -14.3819 H   0  0  0  0  0  0  0  0  0  0  0  0
  -52.6767    6.0444  -15.6175 H   0  0  0  0  0  0  0  0  0  0  0  0
  -53.2268    4.0413  -16.8774 H   0  0  0  0  0  0  0  0  0  0  0  0
  1 12  1  0  0  0  0
  1 31  1  0  0  0  0
  2  1  2  0  0  0  0
  3  4  2  0  0  0  0
  3  2  1  0  0  0  0
  3 43  1  0  0  0  0
  4 11  1  0  0  0  0
  5  7  1  0  0  0  0
  5  4  1  0  0  0  0
  6  5  1  0  0  0  0
  7  8  1  0  0  0  0
  7 44  1  0  0  0  0
  8  9  1  0  0  0  0
  8 10  1  0  0  0  0
 10 33  1  0  0  0  0
 11 10  2  0  0  0  0
 11 12  1  0  0  0  0
 12 45  1  0  0  0  0
 13  2  1  0  0  0  0
 14 13  1  0  0  0  0
 14 46  1  0  0  0  0
 14 47  1  0  0  0  0
 15 14  1  0  0  0  0
 15 48  1  6  0  0  0
 16 15  1  0  0  0  0
 16 49  1  0  0  0  0
 16 50  1  0  0  0  0
 17 16  1  0  0  0  0
 18 17  1  0  0  0  0
 18 19  1  0  0  0  0
 18 51  1  0  0  0  0
 18 52  1  0  0  0  0
 19 21  1  0  0  0  0
 20 19  2  0  0  0  0
 21 15  1  0  0  0  0
 21 22  1  0  0  0  0
 23 17  1  0  0  0  0
 23 53  1  0  0  0  0
 23 54  1  0  0  0  0
 24 25  2  0  0  0  0
 24 23  1  0  0  0  0
 24 55  1  0  0  0  0
 25 26  1  0  0  0  0
 26 28  1  0  0  0  0
 26 56  1  0  0  0  0
 26 57  1  0  0  0  0
 27 30  1  0  0  0  0
 27 25  1  0  0  0  0
 27 58  1  0  0  0  0
 27 59  1  0  0  0  0
 28 60  1  0  0  0  0
 28 61  1  0  0  0  0
 29 28  1  0  0  0  0
 29 62  1  0  0  0  0
 29 63  1  0  0  0  0
 30 29  1  0  0  0  0
 30 64  1  0  0  0  0
 30 65  1  0  0  0  0
 31 32  1  0  0  0  0
 32 66  1  0  0  0  0
 32 67  1  0  0  0  0
 32 68  1  0  0  0  0
 33 34  1  0  0  0  0
 33 35  1  0  0  0  0
 35 36  1  0  0  0  0
 36 37  2  0  0  0  0
 36 69  1  0  0  0  0
 37 38  1  0  0  0  0
 39 37  1  0  0  0  0
 39 40  1  0  0  0  0
 41 39  2  0  0  0  0
 41 70  1  0  0  0  0
 42 35  2  0  0  0  0
 42 41  1  0  0  0  0
 42 71  1  0  0  0  0
M  END
>  <REMARK>
 VINA RESULT:      -8.7      1.385      1.872
  8 active torsions:
  status: ('A' for Active; 'I' for Inactive)
    1  A    between atoms: O_2  and  C_3 
    2  A    between atoms: C_4  and  O_5 
    3  A    between atoms: O_5  and  C_6 
    4  A    between atoms: C_6  and  C_7 
    5  A    between atoms: N_9  and  C_10 
    6  A    between atoms: C_10  and  C_11 
    7  A    between atoms: C_30  and  N_31 
    8  A    between atoms: N_31  and  C_33 

>  <TORSDO>
F 8

$$$$
resistance_project/docking/8faf60323ce63d5a/P00533_T790M/docked/molecule_0005_out.pdbqt
 OpenBabel09142609533D

 71 75  0  0  1  0  0  0  0  0999 V2000
  -48.3070   -3.4530  -20.7040 C   0  0  0  0  0  0  0  0  0  0  0  0
  -47.1530   -2.9620  -20.1450 C   0  0  0  0  0  0  0  0  0  0  0  0
  -46.2080   -2.4370  -21.0130 C   0  0  0  0  0  0  0  0  0  0  0  0
  -46.4410   -2.4210  -22.3580 C   0  0  0  0  0  0  0  0  0  0  0  0
  -45.5320   -1.9160  -23.1900 N   0  0  0  0  0  0  0  0  0  0  0  0
  -44.6680   -1.5460  -22.7940 H   0  0  0  0  0  0  0  0  0  0  0  0
  -45.6930   -1.8680  -24.5240 C   0  0  0  0  0  0  0  0  0  0  0  0
  -46.8420   -2.3630  -25.0210 N   0  0  0  0  0  0  0  0  0  0  0  0
  -46.9810   -2.3350  -26.0310 H   0  0  0  0  0  0  0  0  0  0  0  0
  -47.8160   -2.8930  -24.2630 C   0  0  0  0  0  0  0  0  0  0  0  0
  -47.6090   -2.9220  -22.8990 C   0  0  0  0  0  0  0  0  0  0  0  0
  -48.5620   -3.4480  -22.0620 C   0  0  0  0  0  0  0  0  0  0  0  0
  -47.0080   -3.0200  -18.7880 O   0  0  0  0  0  0  0  0  0  0  0  0
  -46.8790   -1.9410  -17.9070 C   0  0  0  0  0  0  0  0  0  0  0  0
  -48.1470   -1.7120  -17.0930 C   0  0  2  0  0  0  0  0  0  0  0  0
  -48.9130   -0.6280  -17.8000 C   0  0  0  0  0  0  0  0  0  0  0  0
  -50.1460   -0.3230  -17.1430 N   0  0  0  0  0  0  0  0  0  0  0  0
  -50.2040   -0.6230  -15.7480 C   0  0  0  0  0  0  0  0  0  0  0  0
  -48.8800   -0.5520  -15.0770 C   0  0  0  0  0  0  0  0  0  0  0  0
  -48.7170   -0.0030  -13.9440 O   0  0  0  0  0  0  0  0  0  0  0  0
  -47.7800   -1.1440  -15.7870 N   0  0  0  0  0  0  0  0  0  0  0  0
  -46.8300   -1.1680  -15.4180 H   0  0  0  0  0  0  0  0  0  0  0  0
  -50.5160    1.0600  -17.4010 C   0  0  0  0  0  0  0  0  0  0  0  0
  -51.7420    1.0960  -18.2240 C   0  0  0  0  0  0  0  0  0  0  0  0
  -51.7800    1.1200  -19.5460 C   0  0  0  0  0  0  0  0  0  0  0  0
  -50.5260    1.0610  -20.3460 C   0  0  0  0  0  0  0  0  0  0  0  0
  -53.1340    1.2090  -20.1780 C   0  0  0  0  0  0  0  0  0  0  0  0
  -50.6780   -0.0310  -21.3790 C   0  0  0  0  0  0  0  0  0  0  0  0
  -52.0830   -0.5430  -21.5110 C   0  0  0  0  0  0  0  0  0  0  0  0
  -53.1110    0.5630  -21.5480 C   0  0  0  0  0  0  0  0  0  0  0  0
  -49.2950   -3.9960  -19.8690 O   0  0  0  0  0  0  0  0  0  0  0  0
  -50.5450   -3.4040  -19.6950 C   0  0  0  0  0  0  0  0  0  0  0  0
  -49.0290   -3.4150  -24.7950 N   0  0  0  0  0  0  0  0  0  0  0  0
  -49.0940   -4.3860  -25.0990 H   0  0  0  0  0  0  0  0  0  0  0  0
  -50.1480   -2.5400  -24.8900 C   0  0  0  0  0  0  0  0  0  0  0  0
  -50.0070   -1.1930  -25.0940 C   0  0  0  0  0  0  0  0  0  0  0  0
  -51.0780   -0.3140  -25.1920 C   0  0  0  0  0  0  0  0  0  0  0  0
  -50.8580    1.4030  -25.4520 Cl  0  0  0  0  0  0  0  0  0  0  0  0
  -52.3420   -0.8510  -25.0740 C   0  0  0  0  0  0  0  0  0  0  0  0
  -53.7530    0.1850  -25.1850 Cl  0  0  0  0  0  0  0  0  0  0  0  0
  -52.5480   -2.2060  -24.8680 C   0  0  0  0  0  0  0  0  0  0  0  0
  -51.4340   -3.0420  -24.7780 C   0  0  0  0  0  0  0  0  0  0  0  0
  -45.3240   -2.0564  -20.6405 H   0  0  0  0  0  0  0  0  0  0  0  0
  -45.6296   -0.8416  -24.8196 H   0  0  0  0  0  0  0  0  0  0  0  0
  -48.7194   -4.4638  -22.3590 H   0  0  0  0  0  0  0  0  0  0  0  0
  -46.6672   -1.0574  -18.4721 H   0  0  0  0  0  0  0  0  0  0  0  0
  -46.0852   -2.1648  -17.2253 H   0  0  0  0  0  0  0  0  0  0  0  0
  -48.6932   -2.6254  -16.9821 H   0  0  0  0  0  0  0  0  0  0  0  0
  -48.3108    0.2559  -17.8307 H   0  0  0  0  0  0  0  0  0  0  0  0
  -49.1426   -0.9764  -18.7853 H   0  0  0  0  0  0  0  0  0  0  0  0
  -50.5925   -1.6129  -15.6292 H   0  0  0  0  0  0  0  0  0  0  0  0
  -50.8314    0.1134  -15.2908 H   0  0  0  0  0  0  0  0  0  0  0  0
  -50.6949    1.5606  -16.4724 H   0  0  0  0  0  0  0  0  0  0  0  0
  -49.7212    1.5505  -17.9231 H   0  0  0  0  0  0  0  0  0  0  0  0
  -52.6455    1.1030  -17.7254 H   0  0  0  0  0  0  0  0  0  0  0  0
  -50.3618    1.9998  -20.8324 H   0  0  0  0  0  0  0  0  0  0  0  0
  -49.6904    0.8554  -19.7101 H   0  0  0  0  0  0  0  0  0  0  0  0
  -53.8470    0.7041  -19.5603 H   0  0  0  0  0  0  0  0  0  0  0  0
  -53.4064    2.2387  -20.2803 H   0  0  0  0  0  0  0  0  0  0  0  0
  -50.3684    0.3554  -22.3276 H   0  0  0  0  0  0  0  0  0  0  0  0
  -50.0736   -0.8533  -21.0572 H   0  0  0  0  0  0  0  0  0  0  0  0
  -52.1567   -1.1080  -22.4167 H   0  0  0  0  0  0  0  0  0  0  0  0
  -52.2882   -1.1431  -20.6492 H   0  0  0  0  0  0  0  0  0  0  0  0
  -54.0747    0.1586  -21.7775 H   0  0  0  0  0  0  0  0  0  0  0  0
  -52.8634    1.2828  -22.3000 H   0  0  0  0  0  0  0  0  0  0  0  0
  -51.1273   -3.9928  -19.0174 H   0  0  0  0  0  0  0  0  0  0  0  0
  -51.0464   -3.3456  -20.6384 H   0  0  0  0  0  0  0  0  0  0  0  0
  -50.4207   -2.4191  -19.2956 H   0  0  0  0  0  0  0  0  0  0  0  0
  -49.0525   -0.8101  -25.1796 H   0  0  0  0  0  0  0  0  0  0  0  0
  -53.5030   -2.5879  -24.7831 H   0  0  0  0  0  0  0  0  0  0  0  0
  -51.5711   -4.0534  -24.6251 H   0  0  0  0  0  0  0  0  0  0  0  0
  1  2  2  0  0  0  0
  1 31  1  0  0  0  0
  2 13  1  0  0  0  0
  3  2  1  0  0  0  0
  3 43  1  0  0  0  0
  4  3  2  0  0  0  0
  5  6  1  0  0  0  0
  5  4  1  0  0  0  0
  7  5  1  0  0  0  0
  7 44  1  0  0  0  0
  8  7  1  0  0  0  0
  8 10  1  0  0  0  0
  9  8  1  0  0  0  0
 10 11  2  0  0  0  0
 11  4  1  0  0  0  0
 11 12  1  0  0  0  0
 12  1  1  0  0  0  0
 12 45  1  0  0  0  0
 13 14  1  0  0  0  0
 14 15  1  0  0  0  0
 14 46  1  0  0  0  0
 14 47  1  0  0  0  0
 15 21  1  0  0  0  0
 15 48  1  1  0  0  0
 16 17  1  0  0  0  0
 16 15  1  0  0  0  0
 16 49  1  0  0  0  0
 16 50  1  0  0  0  0
 17 18  1  0  0  0  0
 18 19  1  0  0  0  0
 18 51  1  0  0  0  0
 18 52  1  0  0  0  0
 19 20  2  0  0  0  0
 21 22  1  0  0  0  0
 21 19  1  0  0  0  0
 23 17  1  0  0  0  0
 23 53  1  0  0  0  0
 23 54  1  0  0  0  0
 24 23  1  0  0  0  0
 24 55  1  0  0  0  0
 25 24  2  0  0  0  0
 26 25  1  0  0  0  0
 26 56  1  0  0  0  0
 26 57  1  0  0  0  0
 27 25  1  0  0  0  0
 27 58  1  0  0  0  0
 27 59  1  0  0  0  0
 28 26  1  0  0  0  0
 28 60  1  0  0  0  0
 28 61  1  0  0  0  0
 29 28  1  0  0  0  0
 29 62  1  0  0  0  0
 29 63  1  0  0  0  0
 30 29  1  0  0  0  0
 30 27  1  0  0  0  0
 30 64  1  0  0  0  0
 30 65  1  0  0  0  0
 31 32  1  0  0  0  0
 32 66  1  0  0  0  0
 32 67  1  0  0  0  0
 32 68  1  0  0  0  0
 33 10  1  0  0  0  0
 34 33  1  0  0  0  0
 35 33  1  0  0  0  0
 35 42  2  0  0  0  0
 36 35  1  0  0  0  0
 36 69  1  0  0  0  0
 37 36  2  0  0  0  0
 37 39  1  0  0  0  0
 38 37  1  0  0  0  0
 39 41  2  0  0  0  0
 40 39  1  0  0  0  0
 41 42  1  0  0  0  0
 41 70  1  0  0  0  0
 42 71  1  0  0  0  0
M  END
>  <REMARK>
 VINA RESULT:      -8.4      3.618      7.745
  8 active torsions:
  status: ('A' for Active; 'I' for Inactive)
    1  A    between atoms: O_2  and  C_3 
    2  A    between atoms: C_4  and  O_5 
    3  A    between atoms: O_5  and  C_6 
    4  A    between atoms: C_6  and  C_7 
    5  A    between atoms: N_9  and  C_10 
    6  A    between atoms: C_10  and  C_11 
    7  A    between atoms: C_30  and  N_31 
    8  A    between atoms: N_31  and  C_33 

>  <TORSDO>
F 8

$$$$
resistance_project/docking/8faf60323ce63d5a/P00533_T790M/docked/molecule_0005_out.pdbqt
 OpenBabel09142609533D

 71 75  0  0  1  0  0  0  0  0999 V2000
  -48.3740   -1.7230  -17.7950 C   0  0  0  0  0  0  0  0  0  0  0  0
  -48.8300   -3.0190  -17.7950 C   0  0  0  0  0  0  0  0  0  0  0  0
  -49.6890   -3.3830  -16.7690 C   0  0  0  0  0  0  0  0  0  0  0  0
  -50.0480   -2.4750  -15.8150 C   0  0  0  0  0  0  0  0  0  0  0  0
  -50.8730   -2.8270  -14.8310 N   0  0  0  0  0  0  0  0  0  0  0  0
  -51.2220   -3.7850  -14.8140 H   0  0  0  0  0  0  0  0  0  0  0  0
  -51.2680   -1.9870  -13.8580 C   0  0  0  0  0  0  0  0  0  0  0  0
  -50.7910   -0.7290  -13.9040 N   0  0  0  0  0  0  0  0  0  0  0  0
  -51.0810   -0.0780  -13.1740 H   0  0  0  0  0  0  0  0  0  0  0  0
  -49.9560   -0.2810  -14.8560 C   0  0  0  0  0  0  0  0  0  0  0  0
  -49.5760   -1.1770  -15.8340 C   0  0  0  0  0  0  0  0  0  0  0  0
  -48.7240   -0.7890  -16.8390 C   0  0  0  0  0  0  0  0  0  0  0  0
  -48.4170   -3.8570  -18.7920 O   0  0  0  0  0  0  0  0  0  0  0  0
  -49.2250   -4.6150  -19.6450 C   0  0  0  0  0  0  0  0  0  0  0  0
  -49.1510   -4.1260  -21.0870 C   0  0  2  0  0  0  0  0  0  0  0  0
  -50.2560   -3.1190  -21.2490 C   0  0  0  0  0  0  0  0  0  0  0  0
  -50.2910   -2.5630  -22.5660 N   0  0  0  0  0  0  0  0  0  0  0  0
  -49.7270   -3.3690  -23.6010 C   0  0  0  0  0  0  0  0  0  0  0  0
  -49.8170   -4.8260  -23.3260 C   0  0  0  0  0  0  0  0  0  0  0  0
  -50.1560   -5.6700  -24.2120 O   0  0  0  0  0  0  0  0  0  0  0  0
  -49.4980   -5.2360  -21.9870 N   0  0  0  0  0  0  0  0  0  0  0  0
  -49.5130   -6.2110  -21.6860 H   0  0  0  0  0  0  0  0  0  0  0  0
  -51.6460   -2.1530  -22.8950 C   0  0  0  0  0  0  0  0  0  0  0  0
  -51.7680   -0.6890  -22.7450 C   0  0  0  0  0  0  0  0  0  0  0  0
  -52.2230   -0.0610  -21.6730 C   0  0  0  0  0  0  0  0  0  0  0  0
  -52.6220   -0.8220  -20.4570 C   0  0  0  0  0  0  0  0  0  0  0  0
  -52.3110    1.4300  -21.7540 C   0  0  0  0  0  0  0  0  0  0  0  0
  -51.9240   -0.2050  -19.2670 C   0  0  0  0  0  0  0  0  0  0  0  0
  -51.2790    1.1170  -19.5660 C   0  0  0  0  0  0  0  0  0  0  0  0
  -52.1680    2.0350  -20.3730 C   0  0  0  0  0  0  0  0  0  0  0  0
  -47.5030   -1.3050  -18.8110 O   0  0  0  0  0  0  0  0  0  0  0  0
  -47.9320   -0.5760  -19.9200 C   0  0  0  0  0  0  0  0  0  0  0  0
  -49.4560    1.0510  -14.8980 N   0  0  0  0  0  0  0  0  0  0  0  0
  -48.4540    1.2360  -14.8700 H   0  0  0  0  0  0  0  0  0  0  0  0
  -50.3970    2.1160  -14.9810 C   0  0  0  0  0  0  0  0  0  0  0  0
  -50.4960    3.0800  -14.0140 C   0  0  0  0  0  0  0  0  0  0  0  0
  -51.4030    4.1300  -14.0650 C   0  0  0  0  0  0  0  0  0  0  0  0
  -51.5000    5.3450  -12.8080 Cl  0  0  0  0  0  0  0  0  0  0  0  0
  -52.2390    4.1840  -15.1590 C   0  0  0  0  0  0  0  0  0  0  0  0
  -53.4160    5.4760  -15.3080 Cl  0  0  0  0  0  0  0  0  0  0  0  0
  -52.1850    3.2370  -16.1710 C   0  0  0  0  0  0  0  0  0  0  0  0
  -51.2540    2.2040  -16.0660 C   0  0  0  0  0  0  0  0  0  0  0  0
  -50.0588   -4.3455  -16.7265 H   0  0  0  0  0  0  0  0  0  0  0  0
  -50.9672   -2.4120  -12.9232 H   0  0  0  0  0  0  0  0  0  0  0  0
  -49.1874    0.0292  -17.3495 H   0  0  0  0  0  0  0  0  0  0  0  0
  -48.9034   -5.6349  -19.6093 H   0  0  0  0  0  0  0  0  0  0  0  0
  -50.2379   -4.5163  -19.3145 H   0  0  0  0  0  0  0  0  0  0  0  0
  -48.1774   -3.7383  -21.3030 H   0  0  0  0  0  0  0  0  0  0  0  0
  -51.1917   -3.5995  -21.0528 H   0  0  0  0  0  0  0  0  0  0  0  0
  -50.0764   -2.3204  -20.5599 H   0  0  0  0  0  0  0  0  0  0  0  0
  -50.2467   -3.1628  -24.5133 H   0  0  0  0  0  0  0  0  0  0  0  0
  -48.6878   -3.1220  -23.6643 H   0  0  0  0  0  0  0  0  0  0  0  0
  -51.8662   -2.4275  -23.9055 H   0  0  0  0  0  0  0  0  0  0  0  0
  -52.3351   -2.6376  -22.2353 H   0  0  0  0  0  0  0  0  0  0  0  0
  -51.4734   -0.1063  -23.5441 H   0  0  0  0  0  0  0  0  0  0  0  0
  -52.3296   -1.8463  -20.5580 H   0  0  0  0  0  0  0  0  0  0  0  0
  -53.6832   -0.7819  -20.3262 H   0  0  0  0  0  0  0  0  0  0  0  0
  -53.2592    1.7068  -22.1653 H   0  0  0  0  0  0  0  0  0  0  0  0
  -51.5229    1.7941  -22.3794 H   0  0  0  0  0  0  0  0  0  0  0  0
  -51.1669   -0.8822  -18.9307 H   0  0  0  0  0  0  0  0  0  0  0  0
  -52.6718   -0.0274  -18.5226 H   0  0  0  0  0  0  0  0  0  0  0  0
  -51.0415    1.5983  -18.6404 H   0  0  0  0  0  0  0  0  0  0  0  0
  -50.4033    0.9228  -20.1494 H   0  0  0  0  0  0  0  0  0  0  0  0
  -53.1283    2.1156  -19.9080 H   0  0  0  0  0  0  0  0  0  0  0  0
  -51.7432    3.0152  -20.4326 H   0  0  0  0  0  0  0  0  0  0  0  0
  -47.0970   -0.3711  -20.5569 H   0  0  0  0  0  0  0  0  0  0  0  0
  -48.3669    0.3458  -19.5944 H   0  0  0  0  0  0  0  0  0  0  0  0
  -48.6613   -1.1435  -20.4595 H   0  0  0  0  0  0  0  0  0  0  0  0
  -49.8613    3.0231  -13.2022 H   0  0  0  0  0  0  0  0  0  0  0  0
  -52.8192    3.2955  -16.9830 H   0  0  0  0  0  0  0  0  0  0  0  0
  -51.2024    1.4915  -16.8108 H   0  0  0  0  0  0  0  0  0  0  0  0
  1 12  1  0  0  0  0
  2  1  2  0  0  0  0
  2  3  1  0  0  0  0
  3  4  2  0  0  0  0
  3 43  1  0  0  0  0
  4  5  1  0  0  0  0
  5  6  1  0  0  0  0
  5  7  1  0  0  0  0
  7 44  1  0  0  0  0
  8  7  1  0  0  0  0
  8  9  1  0  0  0  0
 10  8  1  0  0  0  0
 11  4  1  0  0  0  0
 11 10  2  0  0  0  0
 12 11  1  0  0  0  0
 12 45  1  0  0  0  0
 13  2  1  0  0  0  0
 14 13  1  0  0  0  0
 14 46  1  0  0  0  0
 14 47  1  0  0  0  0
 15 14  1  0  0  0  0
 15 48  1  6  0  0  0
 16 15  1  0  0  0  0
 16 49  1  0  0  0  0
 16 50  1  0  0  0  0
 17 16  1  0  0  0  0
 18 19  1  0  0  0  0
 18 17  1  0  0  0  0
 18 51  1  0  0  0  0
 18 52  1  0  0  0  0
 19 21  1  0  0  0  0
 20 19  2  0  0  0  0
 21 22  1  0  0  0  0
 21 15  1  0  0  0  0
 23 24  1  0  0  0  0
 23 17  1  0  0  0  0
 23 53  1  0  0  0  0
 23 54  1  0  0  0  0
 24 25  2  0  0  0  0
 24 55  1  0  0  0  0
 25 26  1  0  0  0  0
 26 28  1  0  0  0  0
 26 56  1  0  0  0  0
 26 57  1  0  0  0  0
 27 25  1  0  0  0  0
 27 30  1  0  0  0  0
 27 58  1  0  0  0  0
 27 59  1  0  0  0  0
 28 60  1  0  0  0  0
 28 61  1  0  0  0  0
 29 28  1  0  0  0  0
 29 62  1  0  0  0  0
 29 63  1  0  0  0  0
 30 29  1  0  0  0  0
 30 64  1  0  0  0  0
 30 65  1  0  0  0  0
 31  1  1  0  0  0  0
 32 31  1  0  0  0  0
 32 66  1  0  0  0  0
 32 67  1  0  0  0  0
 32 68  1  0  0  0  0
 33 34  1  0  0  0  0
 33 10  1  0  0  0  0
 35 33  1  0  0  0  0
 35 36  2  0  0  0  0
 36 69  1  0  0  0  0
 37 36  1  0  0  0  0
 37 38  1  0  0  0  0
 39 37  2  0  0  0  0
 40 39  1  0  0  0  0
 41 42  2  0  0  0  0
 41 39  1  0  0  0  0
 41 70  1  0  0  0  0
 42 35  1  0  0  0  0
 42 71  1  0  0  0  0
M  END
>  <REMARK>
 VINA RESULT:      -8.3      2.030      3.881
  8 active torsions:
  status: ('A' for Active; 'I' for Inactive)
    1  A    between atoms: O_2  and  C_3 
    2  A    between atoms: C_4  and  O_5 
    3  A    between atoms: O_5  and  C_6 
    4  A    between atoms: C_6  and  C_7 
    5  A    between atoms: N_9  and  C_10 
    6  A    between atoms: C_10  and  C_11 
    7  A    between atoms: C_30  and  N_31 
    8  A    between atoms: N_31  and  C_33 

>  <TORSDO>
F 8

$$$$
resistance_project/docking/8faf60323ce63d5a/P00533_T790M/docked/molecule_0005_out.pdbqt
 OpenBabel09142609533D

 71 75  0  0  1  0  0  0  0  0999 V2000
  -50.7440   -0.0660  -18.3300 C   0  0  0  0  0  0  0  0  0  0  0  0
  -51.4770    0.7260  -19.1790 C   0  0  0  0  0  0  0  0  0  0  0  0
  -52.0680    1.8540  -18.6310 C   0  0  0  0  0  0  0  0  0  0  0  0
  -51.9120    2.1400  -17.3050 C   0  0  0  0  0  0  0  0  0  0  0  0
  -52.4800    3.2240  -16.7810 N   0  0  0  0  0  0  0  0  0  0  0  0
  -53.0290    3.8260  -17.3950 H   0  0  0  0  0  0  0  0  0  0  0  0
  -52.3690    3.5670  -15.4860 C   0  0  0  0  0  0  0  0  0  0  0  0
  -51.6400    2.7560  -14.6970 N   0  0  0  0  0  0  0  0  0  0  0  0
  -51.5450    3.0010  -13.7120 H   0  0  0  0  0  0  0  0  0  0  0  0
  -51.0290    1.6420  -15.1340 C   0  0  0  0  0  0  0  0  0  0  0  0
  -51.1700    1.3280  -16.4700 C   0  0  0  0  0  0  0  0  0  0  0  0
  -50.5730    0.2030  -16.9860 C   0  0  0  0  0  0  0  0  0  0  0  0
  -51.5780    0.3610  -20.4910 O   0  0  0  0  0  0  0  0  0  0  0  0
  -52.0960    1.1260  -21.5420 C   0  0  0  0  0  0  0  0  0  0  0  0
  -52.3310    0.2900  -22.7950 C   0  0  2  0  0  0  0  0  0  0  0  0
  -51.5370   -0.9740  -22.6160 C   0  0  0  0  0  0  0  0  0  0  0  0
  -51.6830   -1.8640  -23.7250 N   0  0  0  0  0  0  0  0  0  0  0  0
  -52.0360   -1.2610  -24.9700 C   0  0  0  0  0  0  0  0  0  0  0  0
  -51.5560    0.1380  -25.1020 C   0  0  0  0  0  0  0  0  0  0  0  0
  -51.0260    0.5810  -26.1680 O   0  0  0  0  0  0  0  0  0  0  0  0
  -51.7220    0.9740  -23.9460 N   0  0  0  0  0  0  0  0  0  0  0  0
  -51.4420    1.9550  -23.9250 H   0  0  0  0  0  0  0  0  0  0  0  0
  -50.4930   -2.6900  -23.8580 C   0  0  0  0  0  0  0  0  0  0  0  0
  -50.2050   -3.3490  -22.5680 C   0  0  0  0  0  0  0  0  0  0  0  0
  -50.2080   -4.6540  -22.3540 C   0  0  0  0  0  0  0  0  0  0  0  0
  -50.4700   -5.6080  -23.4670 C   0  0  0  0  0  0  0  0  0  0  0  0
  -49.9400   -5.1070  -20.9530 C   0  0  0  0  0  0  0  0  0  0  0  0
  -49.3670   -6.6420  -23.4680 C   0  0  0  0  0  0  0  0  0  0  0  0
  -48.5090   -6.6070  -22.2370 C   0  0  0  0  0  0  0  0  0  0  0  0
  -49.3120   -6.4850  -20.9630 C   0  0  0  0  0  0  0  0  0  0  0  0
  -50.1250   -1.2200  -18.8360 O   0  0  0  0  0  0  0  0  0  0  0  0
  -48.7640   -1.2780  -19.1310 C   0  0  0  0  0  0  0  0  0  0  0  0
  -50.2600    0.7880  -14.2940 N   0  0  0  0  0  0  0  0  0  0  0  0
  -49.2480    0.8960  -14.2220 H   0  0  0  0  0  0  0  0  0  0  0  0
  -50.9440   -0.2200  -13.5590 C   0  0  0  0  0  0  0  0  0  0  0  0
  -51.9530    0.0740  -12.6810 C   0  0  0  0  0  0  0  0  0  0  0  0
  -52.6390   -0.8870  -11.9490 C   0  0  0  0  0  0  0  0  0  0  0  0
  -53.9250   -0.4720  -10.8340 Cl  0  0  0  0  0  0  0  0  0  0  0  0
  -52.2660   -2.2010  -12.1340 C   0  0  0  0  0  0  0  0  0  0  0  0
  -53.0790   -3.4800  -11.2510 Cl  0  0  0  0  0  0  0  0  0  0  0  0
  -51.2530   -2.5600  -13.0090 C   0  0  0  0  0  0  0  0  0  0  0  0
  -50.5980   -1.5530  -13.7180 C   0  0  0  0  0  0  0  0  0  0  0  0
  -52.6290    2.4810  -19.2286 H   0  0  0  0  0  0  0  0  0  0  0  0
  -53.3573    3.6102  -15.0782 H   0  0  0  0  0  0  0  0  0  0  0  0
  -49.5212    0.2930  -16.8113 H   0  0  0  0  0  0  0  0  0  0  0  0
  -53.0268    1.5533  -21.2322 H   0  0  0  0  0  0  0  0  0  0  0  0
  -51.3817    1.8860  -21.7809 H   0  0  0  0  0  0  0  0  0  0  0  0
  -53.3774    0.1252  -22.9462 H   0  0  0  0  0  0  0  0  0  0  0  0
  -50.5029   -0.7197  -22.5119 H   0  0  0  0  0  0  0  0  0  0  0  0
  -51.9047   -1.4726  -21.7436 H   0  0  0  0  0  0  0  0  0  0  0  0
  -51.6107   -1.8421  -25.7615 H   0  0  0  0  0  0  0  0  0  0  0  0
  -53.1046   -1.2353  -25.0180 H   0  0  0  0  0  0  0  0  0  0  0  0
  -49.6624   -2.0765  -24.1385 H   0  0  0  0  0  0  0  0  0  0  0  0
  -50.6569   -3.4335  -24.6098 H   0  0  0  0  0  0  0  0  0  0  0  0
  -49.9826   -2.7394  -21.7656 H   0  0  0  0  0  0  0  0  0  0  0  0
  -51.4157   -6.0865  -23.3197 H   0  0  0  0  0  0  0  0  0  0  0  0
  -50.4930   -5.0892  -24.4025 H   0  0  0  0  0  0  0  0  0  0  0  0
  -50.8613   -5.1418  -20.4099 H   0  0  0  0  0  0  0  0  0  0  0  0
  -49.2674   -4.4189  -20.4850 H   0  0  0  0  0  0  0  0  0  0  0  0
  -48.7431   -6.4701  -24.3201 H   0  0  0  0  0  0  0  0  0  0  0  0
  -49.8376   -7.6026  -23.4951 H   0  0  0  0  0  0  0  0  0  0  0  0
  -47.8480   -5.7683  -22.3054 H   0  0  0  0  0  0  0  0  0  0  0  0
  -47.9747   -7.5330  -22.1920 H   0  0  0  0  0  0  0  0  0  0  0  0
  -48.6709   -6.6008  -20.1142 H   0  0  0  0  0  0  0  0  0  0  0  0
  -50.0653   -7.2435  -20.9174 H   0  0  0  0  0  0  0  0  0  0  0  0
  -48.5205   -2.2518  -19.5015 H   0  0  0  0  0  0  0  0  0  0  0  0
  -48.1982   -1.0820  -18.2442 H   0  0  0  0  0  0  0  0  0  0  0  0
  -48.5285   -0.5447  -19.8737 H   0  0  0  0  0  0  0  0  0  0  0  0
  -52.2183    1.0635  -12.5563 H   0  0  0  0  0  0  0  0  0  0  0  0
  -50.9892   -3.5500  -13.1332 H   0  0  0  0  0  0  0  0  0  0  0  0
  -49.8416   -1.8050  -14.3732 H   0  0  0  0  0  0  0  0  0  0  0  0
  1 12  1  0  0  0  0
  2  3  1  0  0  0  0
  2  1  2  0  0  0  0
  3  4  2  0  0  0  0
  3 43  1  0  0  0  0
  4  5  1  0  0  0  0
  4 11  1  0  0  0  0
  5  7  1  0  0  0  0
  6  5  1  0  0  0  0
  7  8  1  0  0  0  0
  7 44  1  0  0  0  0
  8  9  1  0  0  0  0
 10  8  1  0  0  0  0
 10 33  1  0  0  0  0
 11 10  2  0  0  0  0
 12 11  1  0  0  0  0
 12 45  1  0  0  0  0
 13  2  1  0  0  0  0
 14 13  1  0  0  0  0
 14 46  1  0  0  0  0
 14 47  1  0  0  0  0
 15 16  1  0  0  0  0
 15 14  1  0  0  0  0
 15 48  1  6  0  0  0
 16 49  1  0  0  0  0
 16 50  1  0  0  0  0
 17 16  1  0  0  0  0
 18 17  1  0  0  0  0
 18 51  1  0  0  0  0
 18 52  1  0  0  0  0
 19 18  1  0  0  0  0
 19 21  1  0  0  0  0
 20 19  2  0  0  0  0
 21 22  1  0  0  0  0
 21 15  1  0  0  0  0
 23 17  1  0  0  0  0
 23 24  1  0  0  0  0
 23 53  1  0  0  0  0
 23 54  1  0  0  0  0
 24 25  2  0  0  0  0
 24 55  1  0  0  0  0
 25 27  1  0  0  0  0
 26 25  1  0  0  0  0
 26 56  1  0  0  0  0
 26 57  1  0  0  0  0
 27 58  1  0  0  0  0
 27 59  1  0  0  0  0
 28 26  1  0  0  0  0
 28 29  1  0  0  0  0
 28 60  1  0  0  0  0
 28 61  1  0  0  0  0
 29 30  1  0  0  0  0
 29 62  1  0  0  0  0
 29 63  1  0  0  0  0
 30 27  1  0  0  0  0
 30 64  1  0  0  0  0
 30 65  1  0  0  0  0
 31  1  1  0  0  0  0
 32 31  1  0  0  0  0
 32 66  1  0  0  0  0
 32 67  1  0  0  0  0
 32 68  1  0  0  0  0
 33 34  1  0  0  0  0
 33 35  1  0  0  0  0
 35 36  1  0  0  0  0
 36 37  2  0  0  0  0
 36 69  1  0  0  0  0
 37 38  1  0  0  0  0
 39 37  1  0  0  0  0
 39 40  1  0  0  0  0
 41 39  2  0  0  0  0
 41 70  1  0  0  0  0
 42 35  2  0  0  0  0
 42 41  1  0  0  0  0
 42 71  1  0  0  0  0
M  END
>  <REMARK>
 VINA RESULT:      -8.1      3.289      5.300
  8 active torsions:
  status: ('A' for Active; 'I' for Inactive)
    1  A    between atoms: O_2  and  C_3 
    2  A    between atoms: C_4  and  O_5 
    3  A    between atoms: O_5  and  C_6 
    4  A    between atoms: C_6  and  C_7 
    5  A    between atoms: N_9  and  C_10 
    6  A    between atoms: C_10  and  C_11 
    7  A    between atoms: C_30  and  N_31 
    8  A    between atoms: N_31  and  C_33 

>  <TORSDO>
F 8

$$$$
resistance_project/docking/8faf60323ce63d5a/P00533_T790M/docked/molecule_0005_out.pdbqt
 OpenBabel09142609533D

 71 75  0  0  1  0  0  0  0  0999 V2000
  -49.8200    0.1650  -16.7090 C   0  0  0  0  0  0  0  0  0  0  0  0
  -50.7300    0.8680  -15.9570 C   0  0  0  0  0  0  0  0  0  0  0  0
  -51.7290    1.5390  -16.6460 C   0  0  0  0  0  0  0  0  0  0  0  0
  -51.7820    1.4860  -18.0090 C   0  0  0  0  0  0  0  0  0  0  0  0
  -52.7420    2.1310  -18.6690 N   0  0  0  0  0  0  0  0  0  0  0  0
  -53.4270    2.6590  -18.1290 H   0  0  0  0  0  0  0  0  0  0  0  0
  -52.8550    2.1250  -20.0090 C   0  0  0  0  0  0  0  0  0  0  0  0
  -51.9360    1.4210  -20.6970 N   0  0  0  0  0  0  0  0  0  0  0  0
  -52.0070    1.4050  -21.7150 H   0  0  0  0  0  0  0  0  0  0  0  0
  -50.9320    0.7390  -20.1220 C   0  0  0  0  0  0  0  0  0  0  0  0
  -50.8550    0.7740  -18.7450 C   0  0  0  0  0  0  0  0  0  0  0  0
  -49.8540    0.1000  -18.0880 C   0  0  0  0  0  0  0  0  0  0  0  0
  -50.5990    0.8630  -14.5970 O   0  0  0  0  0  0  0  0  0  0  0  0
  -51.5130    1.3550  -13.6600 C   0  0  0  0  0  0  0  0  0  0  0  0
  -51.5860    0.4760  -12.4170 C   0  0  2  0  0  0  0  0  0  0  0  0
  -51.3060   -0.9290  -12.8750 C   0  0  0  0  0  0  0  0  0  0  0  0
  -51.3280   -1.8630  -11.7930 N   0  0  0  0  0  0  0  0  0  0  0  0
  -52.1060   -1.4880  -10.6560 C   0  0  0  0  0  0  0  0  0  0  0  0
  -53.2480   -0.6000  -10.9940 C   0  0  0  0  0  0  0  0  0  0  0  0
  -54.4060   -0.7570  -10.4960 O   0  0  0  0  0  0  0  0  0  0  0  0
  -52.9720    0.4580  -11.9250 N   0  0  0  0  0  0  0  0  0  0  0  0
  -53.6740    1.1370  -12.2200 H   0  0  0  0  0  0  0  0  0  0  0  0
  -51.7100   -3.1790  -12.2820 C   0  0  0  0  0  0  0  0  0  0  0  0
  -51.1680   -4.2160  -11.3810 C   0  0  0  0  0  0  0  0  0  0  0  0
  -49.9350   -4.6910  -11.4100 C   0  0  0  0  0  0  0  0  0  0  0  0
  -48.9340   -4.1540  -12.3720 C   0  0  0  0  0  0  0  0  0  0  0  0
  -49.6110   -5.7810  -10.4360 C   0  0  0  0  0  0  0  0  0  0  0  0
  -47.6860   -3.7930  -11.5990 C   0  0  0  0  0  0  0  0  0  0  0  0
  -47.6790   -4.3130  -10.1910 C   0  0  0  0  0  0  0  0  0  0  0  0
  -48.1370   -5.7490  -10.0920 C   0  0  0  0  0  0  0  0  0  0  0  0
  -48.7900   -0.5310  -16.0590 O   0  0  0  0  0  0  0  0  0  0  0  0
  -48.7860   -1.9180  -15.9230 C   0  0  0  0  0  0  0  0  0  0  0  0
  -49.9650   -0.0020  -20.8560 N   0  0  0  0  0  0  0  0  0  0  0  0
  -48.9870    0.2850  -20.8760 H   0  0  0  0  0  0  0  0  0  0  0  0
  -50.4050   -1.1570  -21.5630 C   0  0  0  0  0  0  0  0  0  0  0  0
  -51.0490   -1.0750  -22.7680 C   0  0  0  0  0  0  0  0  0  0  0  0
  -51.4900   -2.1820  -23.4820 C   0  0  0  0  0  0  0  0  0  0  0  0
  -52.3120   -2.0370  -25.0210 Cl  0  0  0  0  0  0  0  0  0  0  0  0
  -51.2530   -3.4210  -22.9260 C   0  0  0  0  0  0  0  0  0  0  0  0
  -51.7740   -4.8750  -23.7580 Cl  0  0  0  0  0  0  0  0  0  0  0  0
  -50.6040   -3.5680  -21.7100 C   0  0  0  0  0  0  0  0  0  0  0  0
  -50.1840   -2.4200  -21.0370 C   0  0  0  0  0  0  0  0  0  0  0  0
  -52.4361    2.0813  -16.1256 H   0  0  0  0  0  0  0  0  0  0  0  0
  -53.8167    1.7225  -20.2500 H   0  0  0  0  0  0  0  0  0  0  0  0
  -48.9229    0.4861  -18.4469 H   0  0  0  0  0  0  0  0  0  0  0  0
  -52.4822    1.3959  -14.1115 H   0  0  0  0  0  0  0  0  0  0  0  0
  -51.1851    2.3277  -13.3579 H   0  0  0  0  0  0  0  0  0  0  0  0
  -50.9096    0.8290  -11.6668 H   0  0  0  0  0  0  0  0  0  0  0  0
  -50.3399   -0.9559  -13.3341 H   0  0  0  0  0  0  0  0  0  0  0  0
  -52.0731   -1.2086  -13.5666 H   0  0  0  0  0  0  0  0  0  0  0  0
  -51.4709   -0.9762   -9.9634 H   0  0  0  0  0  0  0  0  0  0  0  0
  -52.5140   -2.3856  -10.2404 H   0  0  0  0  0  0  0  0  0  0  0  0
  -51.3168   -3.3214  -13.2669 H   0  0  0  0  0  0  0  0  0  0  0  0
  -52.7771   -3.2531  -12.3096 H   0  0  0  0  0  0  0  0  0  0  0  0
  -51.8063   -4.6026  -10.6681 H   0  0  0  0  0  0  0  0  0  0  0  0
  -48.7031   -4.8963  -13.1073 H   0  0  0  0  0  0  0  0  0  0  0  0
  -49.3243   -3.2910  -12.8697 H   0  0  0  0  0  0  0  0  0  0  0  0
  -49.8525   -6.7281  -10.8714 H   0  0  0  0  0  0  0  0  0  0  0  0
  -50.1825   -5.6347   -9.5433 H   0  0  0  0  0  0  0  0  0  0  0  0
  -47.6053   -2.7266  -11.5660 H   0  0  0  0  0  0  0  0  0  0  0  0
  -46.8608   -4.2484  -12.1055 H   0  0  0  0  0  0  0  0  0  0  0  0
  -48.3312   -3.7051   -9.5994 H   0  0  0  0  0  0  0  0  0  0  0  0
  -46.6693   -4.2732   -9.8392 H   0  0  0  0  0  0  0  0  0  0  0  0
  -47.5877   -6.3560  -10.7810 H   0  0  0  0  0  0  0  0  0  0  0  0
  -47.9716   -6.1303   -9.1060 H   0  0  0  0  0  0  0  0  0  0  0  0
  -47.9060   -2.2221  -15.3957 H   0  0  0  0  0  0  0  0  0  0  0  0
  -48.7957   -2.3714  -16.8921 H   0  0  0  0  0  0  0  0  0  0  0  0
  -49.6532   -2.2253  -15.3768 H   0  0  0  0  0  0  0  0  0  0  0  0
  -51.2162   -0.1387  -23.1684 H   0  0  0  0  0  0  0  0  0  0  0  0
  -50.4353   -4.5049  -21.3116 H   0  0  0  0  0  0  0  0  0  0  0  0
  -49.6997   -2.5132  -20.1305 H   0  0  0  0  0  0  0  0  0  0  0  0
  1 31  1  0  0  0  0
  1  2  2  0  0  0  0
  2 13  1  0  0  0  0
  3  2  1  0  0  0  0
  3 43  1  0  0  0  0
  4  3  2  0  0  0  0
  5  6  1  0  0  0  0
  5  4  1  0  0  0  0
  7  5  1  0  0  0  0
  7 44  1  0  0  0  0
  8 10  1  0  0  0  0
  8  7  1  0  0  0  0
  9  8  1  0  0  0  0
 10 11  2  0  0  0  0
 11 12  1  0  0  0  0
 11  4  1  0  0  0  0
 12  1  1  0  0  0  0
 12 45  1  0  0  0  0
 13 14  1  0  0  0  0
 14 15  1  0  0  0  0
 14 46  1  0  0  0  0
 14 47  1  0  0  0  0
 15 21  1  0  0  0  0
 15 48  1  1  0  0  0
 16 15  1  0  0  0  0
 16 17  1  0  0  0  0
 16 49  1  0  0  0  0
 16 50  1  0  0  0  0
 17 18  1  0  0  0  0
 18 51  1  0  0  0  0
 18 52  1  0  0  0  0
 19 18  1  0  0  0  0
 19 20  2  0  0  0  0
 21 19  1  0  0  0  0
 22 21  1  0  0  0  0
 23 17  1  0  0  0  0
 23 24  1  0  0  0  0
 23 53  1  0  0  0  0
 23 54  1  0  0  0  0
 24 55  1  0  0  0  0
 25 24  2  0  0  0  0
 25 27  1  0  0  0  0
 26 28  1  0  0  0  0
 26 25  1  0  0  0  0
 26 56  1  0  0  0  0
 26 57  1  0  0  0  0
 27 30  1  0  0  0  0
 27 58  1  0  0  0  0
 27 59  1  0  0  0  0
 28 29  1  0  0  0  0
 28 60  1  0  0  0  0
 28 61  1  0  0  0  0
 29 30  1  0  0  0  0
 29 62  1  0  0  0  0
 29 63  1  0  0  0  0
 30 64  1  0  0  0  0
 30 65  1  0  0  0  0
 31 32  1  0  0  0  0
 32 66  1  0  0  0  0
 32 67  1  0  0  0  0
 32 68  1  0  0  0  0
 33 10  1  0  0  0  0
 34 33  1  0  0  0  0
 35 42  1  0  0  0  0
 35 33  1  0  0  0  0
 36 35  2  0  0  0  0
 36 69  1  0  0  0  0
 37 39  2  0  0  0  0
 37 36  1  0  0  0  0
 38 37  1  0  0  0  0
 39 41  1  0  0  0  0
 40 39  1  0  0  0  0
 41 42  2  0  0  0  0
 41 70  1  0  0  0  0
 42 71  1  0  0  0  0
M  END
>  <REMARK>
 VINA RESULT:      -8.0      4.974      9.853
  8 active torsions:
  status: ('A' for Active; 'I' for Inactive)
    1  A    between atoms: O_2  and  C_3 
    2  A    between atoms: C_4  and  O_5 
    3  A    between atoms: O_5  and  C_6 
    4  A    between atoms: C_6  and  C_7 
    5  A    between atoms: N_9  and  C_10 
    6  A    between atoms: C_10  and  C_11 
    7  A    between atoms: C_30  and  N_31 
    8  A    between atoms: N_31  and  C_33 

>  <TORSDO>
F 8

$$$$
resistance_project/docking/8faf60323ce63d5a/P00533_T790M/docked/molecule_0005_out.pdbqt
 OpenBabel09142609533D

 71 75  0  0  1  0  0  0  0  0999 V2000
  -49.4950   -4.3790  -19.6910 C   0  0  0  0  0  0  0  0  0  0  0  0
  -48.3480   -4.4800  -18.9420 C   0  0  0  0  0  0  0  0  0  0  0  0
  -47.3750   -5.3550  -19.3990 C   0  0  0  0  0  0  0  0  0  0  0  0
  -47.5740   -6.0720  -20.5440 C   0  0  0  0  0  0  0  0  0  0  0  0
  -46.6380   -6.9120  -20.9810 N   0  0  0  0  0  0  0  0  0  0  0  0
  -45.7790   -7.0010  -20.4380 H   0  0  0  0  0  0  0  0  0  0  0  0
  -46.7660   -7.6490  -22.0980 C   0  0  0  0  0  0  0  0  0  0  0  0
  -47.9100   -7.5130  -22.7940 N   0  0  0  0  0  0  0  0  0  0  0  0
  -48.0240   -8.0650  -23.6440 H   0  0  0  0  0  0  0  0  0  0  0  0
  -48.9100   -6.6920  -22.4340 C   0  0  0  0  0  0  0  0  0  0  0  0
  -48.7370   -5.9540  -21.2810 C   0  0  0  0  0  0  0  0  0  0  0  0
  -49.7180   -5.0940  -20.8510 C   0  0  0  0  0  0  0  0  0  0  0  0
  -48.2370   -3.7230  -17.8100 O   0  0  0  0  0  0  0  0  0  0  0  0
  -47.8470   -2.3820  -17.7280 C   0  0  0  0  0  0  0  0  0  0  0  0
  -48.8980   -1.5220  -17.0360 C   0  0  2  0  0  0  0  0  0  0  0  0
  -49.6230   -0.7820  -18.1260 C   0  0  0  0  0  0  0  0  0  0  0  0
  -50.6590    0.0590  -17.6120 N   0  0  0  0  0  0  0  0  0  0  0  0
  -50.4990    0.4940  -16.2620 C   0  0  0  0  0  0  0  0  0  0  0  0
  -49.0780    0.5960  -15.8420 C   0  0  0  0  0  0  0  0  0  0  0  0
  -48.6320    1.5770  -15.1690 O   0  0  0  0  0  0  0  0  0  0  0  0
  -48.2210   -0.4850  -16.2440 N   0  0  0  0  0  0  0  0  0  0  0  0
  -47.2310   -0.5290  -16.0010 H   0  0  0  0  0  0  0  0  0  0  0  0
  -50.8740    1.1840  -18.5070 C   0  0  0  0  0  0  0  0  0  0  0  0
  -50.6750    0.7470  -19.9040 C   0  0  0  0  0  0  0  0  0  0  0  0
  -51.6330    0.3880  -20.7420 C   0  0  0  0  0  0  0  0  0  0  0  0
  -53.0630    0.4460  -20.3320 C   0  0  0  0  0  0  0  0  0  0  0  0
  -51.2030   -0.0720  -22.0990 C   0  0  0  0  0  0  0  0  0  0  0  0
  -53.8250    1.2070  -21.3930 C   0  0  0  0  0  0  0  0  0  0  0  0
  -53.0380    1.4370  -22.6500 C   0  0  0  0  0  0  0  0  0  0  0  0
  -52.2940    0.2060  -23.1120 C   0  0  0  0  0  0  0  0  0  0  0  0
  -50.5110   -3.5060  -19.2710 O   0  0  0  0  0  0  0  0  0  0  0  0
  -51.4970   -3.0270  -20.1330 C   0  0  0  0  0  0  0  0  0  0  0  0
  -50.1170   -6.5530  -23.1750 N   0  0  0  0  0  0  0  0  0  0  0  0
  -50.8040   -7.3060  -23.2070 H   0  0  0  0  0  0  0  0  0  0  0  0
  -50.3370   -5.3300  -23.8710 C   0  0  0  0  0  0  0  0  0  0  0  0
  -49.3530   -4.7170  -24.5990 C   0  0  0  0  0  0  0  0  0  0  0  0
  -49.5350   -3.5250  -25.2890 C   0  0  0  0  0  0  0  0  0  0  0  0
  -48.2520   -2.7700  -26.2090 Cl  0  0  0  0  0  0  0  0  0  0  0  0
  -50.7850   -2.9470  -25.2210 C   0  0  0  0  0  0  0  0  0  0  0  0
  -51.1060   -1.4410  -26.0610 Cl  0  0  0  0  0  0  0  0  0  0  0  0
  -51.8210   -3.5210  -24.5000 C   0  0  0  0  0  0  0  0  0  0  0  0
  -51.5800   -4.7190  -23.8280 C   0  0  0  0  0  0  0  0  0  0  0  0
  -46.4952   -5.4652  -18.8710 H   0  0  0  0  0  0  0  0  0  0  0  0
  -45.9588   -7.3886  -22.7503 H   0  0  0  0  0  0  0  0  0  0  0  0
  -50.6049   -5.6735  -20.7012 H   0  0  0  0  0  0  0  0  0  0  0  0
  -47.6909   -2.0067  -18.7178 H   0  0  0  0  0  0  0  0  0  0  0  0
  -46.9483   -2.3344  -17.1492 H   0  0  0  0  0  0  0  0  0  0  0  0
  -49.5355   -2.1264  -16.4251 H   0  0  0  0  0  0  0  0  0  0  0  0
  -48.9195   -0.1760  -18.6578 H   0  0  0  0  0  0  0  0  0  0  0  0
  -50.0773   -1.5069  -18.7687 H   0  0  0  0  0  0  0  0  0  0  0  0
  -50.9938   -0.2040  -15.6194 H   0  0  0  0  0  0  0  0  0  0  0  0
  -50.9210    1.4748  -16.1930 H   0  0  0  0  0  0  0  0  0  0  0  0
  -51.8723    1.5499  -18.3865 H   0  0  0  0  0  0  0  0  0  0  0  0
  -50.1781    1.9628  -18.2744 H   0  0  0  0  0  0  0  0  0  0  0  0
  -49.7053    0.7195  -20.2562 H   0  0  0  0  0  0  0  0  0  0  0  0
  -53.4557   -0.5455  -20.2443 H   0  0  0  0  0  0  0  0  0  0  0  0
  -53.1577    0.9349  -19.3850 H   0  0  0  0  0  0  0  0  0  0  0  0
  -50.3136    0.4499  -22.3844 H   0  0  0  0  0  0  0  0  0  0  0  0
  -51.0131   -1.1246  -22.0684 H   0  0  0  0  0  0  0  0  0  0  0  0
  -54.7048    0.6511  -21.6418 H   0  0  0  0  0  0  0  0  0  0  0  0
  -54.0533    2.1696  -20.9854 H   0  0  0  0  0  0  0  0  0  0  0  0
  -53.7120    1.7391  -23.4242 H   0  0  0  0  0  0  0  0  0  0  0  0
  -52.3096    2.1918  -22.4389 H   0  0  0  0  0  0  0  0  0  0  0  0
  -51.8625    0.3799  -24.0756 H   0  0  0  0  0  0  0  0  0  0  0  0
  -52.9582   -0.6292  -23.1900 H   0  0  0  0  0  0  0  0  0  0  0  0
  -52.1588   -2.3815  -19.5943 H   0  0  0  0  0  0  0  0  0  0  0  0
  -52.0502   -3.8501  -20.5346 H   0  0  0  0  0  0  0  0  0  0  0  0
  -51.0386   -2.4819  -20.9315 H   0  0  0  0  0  0  0  0  0  0  0  0
  -48.4243   -5.1653  -24.6374 H   0  0  0  0  0  0  0  0  0  0  0  0
  -52.7493   -3.0719  -24.4615 H   0  0  0  0  0  0  0  0  0  0  0  0
  -52.3419   -5.1589  -23.2884 H   0  0  0  0  0  0  0  0  0  0  0  0
  1 31  1  0  0  0  0
  1  2  2  0  0  0  0
  2 13  1  0  0  0  0
  3  2  1  0  0  0  0
  3 43  1  0  0  0  0
  4  3  2  0  0  0  0
  5  4  1  0  0  0  0
  5  6  1  0  0  0  0
  7  5  1  0  0  0  0
  7 44  1  0  0  0  0
  8 10  1  0  0  0  0
  8  7  1  0  0  0  0
  9  8  1  0  0  0  0
 10 11  2  0  0  0  0
 11 12  1  0  0  0  0
 11  4  1  0  0  0  0
 12  1  1  0  0  0  0
 12 45  1  0  0  0  0
 13 14  1  0  0  0  0
 14 15  1  0  0  0  0
 14 46  1  0  0  0  0
 14 47  1  0  0  0  0
 15 21  1  0  0  0  0
 15 48  1  1  0  0  0
 16 17  1  0  0  0  0
 16 15  1  0  0  0  0
 16 49  1  0  0  0  0
 16 50  1  0  0  0  0
 17 18  1  0  0  0  0
 18 19  1  0  0  0  0
 18 51  1  0  0  0  0
 18 52  1  0  0  0  0
 19 20  2  0  0  0  0
 21 22  1  0  0  0  0
 21 19  1  0  0  0  0
 23 17  1  0  0  0  0
 23 53  1  0  0  0  0
 23 54  1  0  0  0  0
 24 23  1  0  0  0  0
 24 55  1  0  0  0  0
 25 26  1  0  0  0  0
 25 24  2  0  0  0  0
 26 56  1  0  0  0  0
 26 57  1  0  0  0  0
 27 25  1  0  0  0  0
 27 58  1  0  0  0  0
 27 59  1  0  0  0  0
 28 26  1  0  0  0  0
 28 60  1  0  0  0  0
 28 61  1  0  0  0  0
 29 28  1  0  0  0  0
 29 62  1  0  0  0  0
 29 63  1  0  0  0  0
 30 29  1  0  0  0  0
 30 27  1  0  0  0  0
 30 64  1  0  0  0  0
 30 65  1  0  0  0  0
 32 31  1  0  0  0  0
 32 66  1  0  0  0  0
 32 67  1  0  0  0  0
 32 68  1  0  0  0  0
 33 10  1  0  0  0  0
 34 33  1  0  0  0  0
 35 42  1  0  0  0  0
 35 33  1  0  0  0  0
 36 35  2  0  0  0  0
 36 69  1  0  0  0  0
 37 39  2  0  0  0  0
 37 36  1  0  0  0  0
 38 37  1  0  0  0  0
 39 41  1  0  0  0  0
 40 39  1  0  0  0  0
 41 42  2  0  0  0  0
 41 70  1  0  0  0  0
 42 71  1  0  0  0  0
M  END
>  <REMARK>
 VINA RESULT:      -7.9      4.076      8.464
  8 active torsions:
  status: ('A' for Active; 'I' for Inactive)
    1  A    between atoms: O_2  and  C_3 
    2  A    between atoms: C_4  and  O_5 
    3  A    between atoms: O_5  and  C_6 
    4  A    between atoms: C_6  and  C_7 
    5  A    between atoms: N_9  and  C_10 
    6  A    between atoms: C_10  and  C_11 
    7  A    between atoms: C_30  and  N_31 
    8  A    between atoms: N_31  and  C_33 

>  <TORSDO>
F 8

$$$$
resistance_project/docking/8faf60323ce63d5a/P00533_T790M/docked/molecule_0005_out.pdbqt
 OpenBabel09142609533D

 71 75  0  0  1  0  0  0  0  0999 V2000
  -47.3400   -3.4150  -24.6970 C   0  0  0  0  0  0  0  0  0  0  0  0
  -47.2460   -4.7720  -24.5010 C   0  0  0  0  0  0  0  0  0  0  0  0
  -48.4330   -5.4600  -24.3000 C   0  0  0  0  0  0  0  0  0  0  0  0
  -49.6250   -4.7960  -24.3020 C   0  0  0  0  0  0  0  0  0  0  0  0
  -50.7630   -5.4590  -24.1090 N   0  0  0  0  0  0  0  0  0  0  0  0
  -50.7150   -6.4670  -23.9610 H   0  0  0  0  0  0  0  0  0  0  0  0
  -51.9730   -4.8710  -24.0980 C   0  0  0  0  0  0  0  0  0  0  0  0
  -52.0080   -3.5390  -24.2950 N   0  0  0  0  0  0  0  0  0  0  0  0
  -52.9160   -3.0760  -24.2890 H   0  0  0  0  0  0  0  0  0  0  0  0
  -50.9150   -2.7850  -24.4970 C   0  0  0  0  0  0  0  0  0  0  0  0
  -49.6950   -3.4300  -24.5010 C   0  0  0  0  0  0  0  0  0  0  0  0
  -48.5350   -2.7230  -24.7030 C   0  0  0  0  0  0  0  0  0  0  0  0
  -46.0090   -5.3510  -24.5150 O   0  0  0  0  0  0  0  0  0  0  0  0
  -45.6590   -6.6030  -24.0000 C   0  0  0  0  0  0  0  0  0  0  0  0
  -45.0880   -6.5020  -22.5900 C   0  0  2  0  0  0  0  0  0  0  0  0
  -46.0980   -7.1410  -21.6780 C   0  0  0  0  0  0  0  0  0  0  0  0
  -45.6760   -7.1290  -20.3120 N   0  0  0  0  0  0  0  0  0  0  0  0
  -44.7450   -6.1070  -19.9540 C   0  0  0  0  0  0  0  0  0  0  0  0
  -44.8720   -4.8810  -20.7820 C   0  0  0  0  0  0  0  0  0  0  0  0
  -44.8340   -3.7130  -20.2840 O   0  0  0  0  0  0  0  0  0  0  0  0
  -45.0430   -5.0870  -22.1930 N   0  0  0  0  0  0  0  0  0  0  0  0
  -45.1270   -4.3200  -22.8600 H   0  0  0  0  0  0  0  0  0  0  0  0
  -46.8360   -7.1170  -19.4350 C   0  0  0  0  0  0  0  0  0  0  0  0
  -48.0080   -6.6070  -20.1760 C   0  0  0  0  0  0  0  0  0  0  0  0
  -48.6630   -5.4910  -19.9040 C   0  0  0  0  0  0  0  0  0  0  0  0
  -48.2150   -4.5940  -18.8030 C   0  0  0  0  0  0  0  0  0  0  0  0
  -49.8590   -5.1900  -20.7520 C   0  0  0  0  0  0  0  0  0  0  0  0
  -48.1080   -3.1910  -19.3550 C   0  0  0  0  0  0  0  0  0  0  0  0
  -48.7260   -3.0300  -20.7130 C   0  0  0  0  0  0  0  0  0  0  0  0
  -50.0790   -3.6930  -20.8260 C   0  0  0  0  0  0  0  0  0  0  0  0
  -46.1680   -2.6730  -24.9050 O   0  0  0  0  0  0  0  0  0  0  0  0
  -45.5770   -1.9010  -23.9050 C   0  0  0  0  0  0  0  0  0  0  0  0
  -50.9590   -1.3780  -24.7050 N   0  0  0  0  0  0  0  0  0  0  0  0
  -50.6590   -0.9680  -25.5890 H   0  0  0  0  0  0  0  0  0  0  0  0
  -51.4360   -0.5600  -23.6410 C   0  0  0  0  0  0  0  0  0  0  0  0
  -50.8100   -0.5060  -22.4250 C   0  0  0  0  0  0  0  0  0  0  0  0
  -51.2500    0.2810  -21.3690 C   0  0  0  0  0  0  0  0  0  0  0  0
  -50.4230    0.3230  -19.8260 Cl  0  0  0  0  0  0  0  0  0  0  0  0
  -52.3800    1.0400  -21.5810 C   0  0  0  0  0  0  0  0  0  0  0  0
  -53.0070    2.0650  -20.3020 Cl  0  0  0  0  0  0  0  0  0  0  0  0
  -53.0560    1.0280  -22.7910 C   0  0  0  0  0  0  0  0  0  0  0  0
  -52.5690    0.2180  -23.8170 C   0  0  0  0  0  0  0  0  0  0  0  0
  -48.4148   -6.4806  -24.1480 H   0  0  0  0  0  0  0  0  0  0  0  0
  -52.5601   -5.3266  -24.8678 H   0  0  0  0  0  0  0  0  0  0  0  0
  -48.6183   -2.2419  -25.6551 H   0  0  0  0  0  0  0  0  0  0  0  0
  -44.9242   -7.0462  -24.6392 H   0  0  0  0  0  0  0  0  0  0  0  0
  -46.5451   -7.2011  -23.9554 H   0  0  0  0  0  0  0  0  0  0  0  0
  -44.1182   -6.9518  -22.5440 H   0  0  0  0  0  0  0  0  0  0  0  0
  -46.2455   -8.1556  -21.9842 H   0  0  0  0  0  0  0  0  0  0  0  0
  -47.0052   -6.5778  -21.7465 H   0  0  0  0  0  0  0  0  0  0  0  0
  -44.9072   -5.8434  -18.9297 H   0  0  0  0  0  0  0  0  0  0  0  0
  -43.7636   -6.5004  -20.1184 H   0  0  0  0  0  0  0  0  0  0  0  0
  -46.6416   -6.4833  -18.5951 H   0  0  0  0  0  0  0  0  0  0  0  0
  -47.0350   -8.1112  -19.0931 H   0  0  0  0  0  0  0  0  0  0  0  0
  -48.3439   -7.1694  -20.9734 H   0  0  0  0  0  0  0  0  0  0  0  0
  -47.2611   -4.9145  -18.4394 H   0  0  0  0  0  0  0  0  0  0  0  0
  -48.9147   -4.6219  -17.9940 H   0  0  0  0  0  0  0  0  0  0  0  0
  -49.6997   -5.5738  -21.7380 H   0  0  0  0  0  0  0  0  0  0  0  0
  -50.7218   -5.6505  -20.3180 H   0  0  0  0  0  0  0  0  0  0  0  0
  -48.5993   -2.5232  -18.6786 H   0  0  0  0  0  0  0  0  0  0  0  0
  -47.0654   -2.9731  -19.4573 H   0  0  0  0  0  0  0  0  0  0  0  0
  -48.8399   -1.9853  -20.9145 H   0  0  0  0  0  0  0  0  0  0  0  0
  -48.0766   -3.5035  -21.4193 H   0  0  0  0  0  0  0  0  0  0  0  0
  -50.7096   -3.3761  -20.0218 H   0  0  0  0  0  0  0  0  0  0  0  0
  -50.5539   -3.4266  -21.7471 H   0  0  0  0  0  0  0  0  0  0  0  0
  -44.6986   -1.4280  -24.2918 H   0  0  0  0  0  0  0  0  0  0  0  0
  -45.3104   -2.5287  -23.0805 H   0  0  0  0  0  0  0  0  0  0  0  0
  -46.2686   -1.1540  -23.5755 H   0  0  0  0  0  0  0  0  0  0  0  0
  -49.9649   -1.0816  -22.2854 H   0  0  0  0  0  0  0  0  0  0  0  0
  -53.9003    1.6051  -22.9297 H   0  0  0  0  0  0  0  0  0  0  0  0
  -53.0615    0.1978  -24.7237 H   0  0  0  0  0  0  0  0  0  0  0  0
  1  2  2  0  0  0  0
  2  3  1  0  0  0  0
  3 43  1  0  0  0  0
  4  3  2  0  0  0  0
  4  5  1  0  0  0  0
  5  7  1  0  0  0  0
  5  6  1  0  0  0  0
  7 44  1  0  0  0  0
  8  9  1  0  0  0  0
  8  7  1  0  0  0  0
 10  8  1  0  0  0  0
 11 10  2  0  0  0  0
 11  4  1  0  0  0  0
 12  1  1  0  0  0  0
 12 11  1  0  0  0  0
 12 45  1  0  0  0  0
 13  2  1  0  0  0  0
 13 14  1  0  0  0  0
 14 15  1  0  0  0  0
 14 46  1  0  0  0  0
 14 47  1  0  0  0  0
 15 21  1  0  0  0  0
 15 16  1  0  0  0  0
 15 48  1  1  0  0  0
 16 17  1  0  0  0  0
 16 49  1  0  0  0  0
 16 50  1  0  0  0  0
 17 18  1  0  0  0  0
 17 23  1  0  0  0  0
 18 51  1  0  0  0  0
 18 52  1  0  0  0  0
 19 20  2  0  0  0  0
 19 18  1  0  0  0  0
 21 19  1  0  0  0  0
 22 21  1  0  0  0  0
 23 53  1  0  0  0  0
 23 54  1  0  0  0  0
 24 25  2  0  0  0  0
 24 23  1  0  0  0  0
 24 55  1  0  0  0  0
 25 26  1  0  0  0  0
 26 56  1  0  0  0  0
 26 57  1  0  0  0  0
 27 25  1  0  0  0  0
 27 58  1  0  0  0  0
 27 59  1  0  0  0  0
 28 26  1  0  0  0  0
 28 60  1  0  0  0  0
 28 61  1  0  0  0  0
 29 28  1  0  0  0  0
 29 62  1  0  0  0  0
 29 63  1  0  0  0  0
 30 27  1  0  0  0  0
 30 29  1  0  0  0  0
 30 64  1  0  0  0  0
 30 65  1  0  0  0  0
 31  1  1  0  0  0  0
 31 32  1  0  0  0  0
 32 66  1  0  0  0  0
 32 67  1  0  0  0  0
 32 68  1  0  0  0  0
 33 10  1  0  0  0  0
 33 35  1  0  0  0  0
 34 33  1  0  0  0  0
 35 36  1  0  0  0  0
 36 37  2  0  0  0  0
 36 69  1  0  0  0  0
 37 38  1  0  0  0  0
 39 37  1  0  0  0  0
 39 40  1  0  0  0  0
 41 39  2  0  0  0  0
 41 70  1  0  0  0  0
 42 35  2  0  0  0  0
 42 41  1  0  0  0  0
 42 71  1  0  0  0  0
M  END
>  <REMARK>
 VINA RESULT:      -7.6      4.474      7.037
  8 active torsions:
  status: ('A' for Active; 'I' for Inactive)
    1  A    between atoms: O_2  and  C_3 
    2  A    between atoms: C_4  and  O_5 
    3  A    between atoms: O_5  and  C_6 
    4  A    between atoms: C_6  and  C_7 
    5  A    between atoms: N_9  and  C_10 
    6  A    between atoms: C_10  and  C_11 
    7  A    between atoms: C_30  and  N_31 
    8  A    between atoms: N_31  and  C_33 

>  <TORSDO>
F 8

$$$$
resistance_project/docking/8faf60323ce63d5a/P00533_T790M/docked/molecule_0005_out.pdbqt
 OpenBabel09142609533D

 71 75  0  0  1  0  0  0  0  0999 V2000
  -48.8470   -1.8110  -13.6150 C   0  0  0  0  0  0  0  0  0  0  0  0
  -49.9470   -1.2870  -14.2500 C   0  0  0  0  0  0  0  0  0  0  0  0
  -51.1880   -1.7520  -13.8420 C   0  0  0  0  0  0  0  0  0  0  0  0
  -51.2830   -2.6890  -12.8540 C   0  0  0  0  0  0  0  0  0  0  0  0
  -52.4760   -3.1340  -12.4650 N   0  0  0  0  0  0  0  0  0  0  0  0
  -53.3050   -2.7570  -12.9230 H   0  0  0  0  0  0  0  0  0  0  0  0
  -52.6460   -4.0550  -11.4990 C   0  0  0  0  0  0  0  0  0  0  0  0
  -51.5350   -4.5370  -10.9110 N   0  0  0  0  0  0  0  0  0  0  0  0
  -51.6440   -5.2360  -10.1760 H   0  0  0  0  0  0  0  0  0  0  0  0
  -50.2900   -4.1500  -11.2350 C   0  0  0  0  0  0  0  0  0  0  0  0
  -50.1630   -3.2030  -12.2310 C   0  0  0  0  0  0  0  0  0  0  0  0
  -48.9210   -2.7600  -12.6140 C   0  0  0  0  0  0  0  0  0  0  0  0
  -49.7550   -0.3530  -15.2280 O   0  0  0  0  0  0  0  0  0  0  0  0
  -50.7400    0.3550  -15.9230 C   0  0  0  0  0  0  0  0  0  0  0  0
  -50.3020    0.7020  -17.3410 C   0  0  2  0  0  0  0  0  0  0  0  0
  -51.4090    0.2430  -18.2500 C   0  0  0  0  0  0  0  0  0  0  0  0
  -51.1310    0.5250  -19.6240 N   0  0  0  0  0  0  0  0  0  0  0  0
  -49.7520    0.6470  -19.9720 C   0  0  0  0  0  0  0  0  0  0  0  0
  -48.8550   -0.1590  -19.1050 C   0  0  0  0  0  0  0  0  0  0  0  0
  -47.8910   -0.8440  -19.5680 O   0  0  0  0  0  0  0  0  0  0  0  0
  -49.1370   -0.1220  -17.6970 N   0  0  0  0  0  0  0  0  0  0  0  0
  -48.5800   -0.6240  -17.0050 H   0  0  0  0  0  0  0  0  0  0  0  0
  -51.8070   -0.4420  -20.4740 C   0  0  0  0  0  0  0  0  0  0  0  0
  -52.9380    0.2130  -21.1620 C   0  0  0  0  0  0  0  0  0  0  0  0
  -52.8900    0.7750  -22.3590 C   0  0  0  0  0  0  0  0  0  0  0  0
  -51.6370    0.7440  -23.1640 C   0  0  0  0  0  0  0  0  0  0  0  0
  -54.1440    1.4300  -22.8460 C   0  0  0  0  0  0  0  0  0  0  0  0
  -51.9780    0.2300  -24.5430 C   0  0  0  0  0  0  0  0  0  0  0  0
  -53.4540    0.1650  -24.8140 C   0  0  0  0  0  0  0  0  0  0  0  0
  -54.1890    1.4040  -24.3590 C   0  0  0  0  0  0  0  0  0  0  0  0
  -47.5690   -1.3730  -13.9910 O   0  0  0  0  0  0  0  0  0  0  0  0
  -46.7880   -0.5460  -13.1850 C   0  0  0  0  0  0  0  0  0  0  0  0
  -49.1200   -4.6630  -10.6080 N   0  0  0  0  0  0  0  0  0  0  0  0
  -48.6480   -4.1420   -9.8690 H   0  0  0  0  0  0  0  0  0  0  0  0
  -48.6280   -5.9260  -11.0440 C   0  0  0  0  0  0  0  0  0  0  0  0
  -47.5580   -6.0400  -11.8900 C   0  0  0  0  0  0  0  0  0  0  0  0
  -47.0540   -7.2560  -12.3330 C   0  0  0  0  0  0  0  0  0  0  0  0
  -45.6830   -7.3630  -13.4170 Cl  0  0  0  0  0  0  0  0  0  0  0  0
  -47.6830   -8.3970  -11.8820 C   0  0  0  0  0  0  0  0  0  0  0  0
  -47.1140   -9.9770  -12.3900 Cl  0  0  0  0  0  0  0  0  0  0  0  0
  -48.7700   -8.3450  -11.0230 C   0  0  0  0  0  0  0  0  0  0  0  0
  -49.2330   -7.0950  -10.6110 C   0  0  0  0  0  0  0  0  0  0  0  0
  -52.0445   -1.3876  -14.2878 H   0  0  0  0  0  0  0  0  0  0  0  0
  -53.1676   -4.8833  -11.9311 H   0  0  0  0  0  0  0  0  0  0  0  0
  -48.4511   -2.3443  -11.7472 H   0  0  0  0  0  0  0  0  0  0  0  0
  -51.6257   -0.2434  -15.9719 H   0  0  0  0  0  0  0  0  0  0  0  0
  -50.9195    1.2708  -15.3996 H   0  0  0  0  0  0  0  0  0  0  0  0
  -50.0812    1.7459  -17.4212 H   0  0  0  0  0  0  0  0  0  0  0  0
  -51.5350   -0.8132  -18.1336 H   0  0  0  0  0  0  0  0  0  0  0  0
  -52.2980    0.7732  -17.9790 H   0  0  0  0  0  0  0  0  0  0  0  0
  -49.4703    1.6759  -19.8891 H   0  0  0  0  0  0  0  0  0  0  0  0
  -49.6429    0.2790  -20.9708 H   0  0  0  0  0  0  0  0  0  0  0  0
  -51.1188   -0.8209  -21.2004 H   0  0  0  0  0  0  0  0  0  0  0  0
  -52.1733   -1.2491  -19.8746 H   0  0  0  0  0  0  0  0  0  0  0  0
  -53.8432    0.2342  -20.6668 H   0  0  0  0  0  0  0  0  0  0  0  0
  -51.2273    1.7299  -23.2354 H   0  0  0  0  0  0  0  0  0  0  0  0
  -50.9134    0.1072  -22.6994 H   0  0  0  0  0  0  0  0  0  0  0  0
  -54.9916    0.9052  -22.4574 H   0  0  0  0  0  0  0  0  0  0  0  0
  -54.1614    2.4464  -22.5119 H   0  0  0  0  0  0  0  0  0  0  0  0
  -51.5298    0.8791  -25.2660 H   0  0  0  0  0  0  0  0  0  0  0  0
  -51.6037   -0.7704  -24.6058 H   0  0  0  0  0  0  0  0  0  0  0  0
  -53.8590   -0.6810  -24.2990 H   0  0  0  0  0  0  0  0  0  0  0  0
  -53.5834    0.0850  -25.8731 H   0  0  0  0  0  0  0  0  0  0  0  0
  -55.2047    1.3698  -24.6937 H   0  0  0  0  0  0  0  0  0  0  0  0
  -53.7331    2.2829  -24.7647 H   0  0  0  0  0  0  0  0  0  0  0  0
  -45.8586   -0.3446  -13.6754 H   0  0  0  0  0  0  0  0  0  0  0  0
  -46.6002   -1.0326  -12.2507 H   0  0  0  0  0  0  0  0  0  0  0  0
  -47.3058    0.3739  -13.0103 H   0  0  0  0  0  0  0  0  0  0  0  0
  -47.1005   -5.1746  -12.2167 H   0  0  0  0  0  0  0  0  0  0  0  0
  -49.2262   -9.2110  -10.6959 H   0  0  0  0  0  0  0  0  0  0  0  0
  -50.0413   -7.0400   -9.9717 H   0  0  0  0  0  0  0  0  0  0  0  0
  1 12  1  0  0  0  0
  2  3  1  0  0  0  0
  2  1  2  0  0  0  0
  3  4  2  0  0  0  0
  3 43  1  0  0  0  0
  4  5  1  0  0  0  0
  4 11  1  0  0  0  0
  5  7  1  0  0  0  0
  6  5  1  0  0  0  0
  7  8  1  0  0  0  0
  7 44  1  0  0  0  0
  8  9  1  0  0  0  0
 10  8  1  0  0  0  0
 10 33  1  0  0  0  0
 11 10  2  0  0  0  0
 12 11  1  0  0  0  0
 12 45  1  0  0  0  0
 13  2  1  0  0  0  0
 14 13  1  0  0  0  0
 14 46  1  0  0  0  0
 14 47  1  0  0  0  0
 15 14  1  0  0  0  0
 15 48  1  6  0  0  0
 16 15  1  0  0  0  0
 16 49  1  0  0  0  0
 16 50  1  0  0  0  0
 17 16  1  0  0  0  0
 18 17  1  0  0  0  0
 18 19  1  0  0  0  0
 18 51  1  0  0  0  0
 18 52  1  0  0  0  0
 19 21  1  0  0  0  0
 20 19  2  0  0  0  0
 21 15  1  0  0  0  0
 21 22  1  0  0  0  0
 23 17  1  0  0  0  0
 23 53  1  0  0  0  0
 23 54  1  0  0  0  0
 24 23  1  0  0  0  0
 24 55  1  0  0  0  0
 25 24  2  0  0  0  0
 26 25  1  0  0  0  0
 26 56  1  0  0  0  0
 26 57  1  0  0  0  0
 27 25  1  0  0  0  0
 27 58  1  0  0  0  0
 27 59  1  0  0  0  0
 28 26  1  0  0  0  0
 28 60  1  0  0  0  0
 28 61  1  0  0  0  0
 29 28  1  0  0  0  0
 29 30  1  0  0  0  0
 29 62  1  0  0  0  0
 29 63  1  0  0  0  0
 30 27  1  0  0  0  0
 30 64  1  0  0  0  0
 30 65  1  0  0  0  0
 31  1  1  0  0  0  0
 31 32  1  0  0  0  0
 32 66  1  0  0  0  0
 32 67  1  0  0  0  0
 32 68  1  0  0  0  0
 33 34  1  0  0  0  0
 35 42  2  0  0  0  0
 35 33  1  0  0  0  0
 36 35  1  0  0  0  0
 36 69  1  0  0  0  0
 37 36  2  0  0  0  0
 37 39  1  0  0  0  0
 38 37  1  0  0  0  0
 39 41  2  0  0  0  0
 40 39  1  0  0  0  0
 41 42  1  0  0  0  0
 41 70  1  0  0  0  0
 42 71  1  0  0  0  0
M  END
>  <REMARK>
 VINA RESULT:      -7.6      5.724      8.149
  8 active torsions:
  status: ('A' for Active; 'I' for Inactive)
    1  A    between atoms: O_2  and  C_3 
    2  A    between atoms: C_4  and  O_5 
    3  A    between atoms: O_5  and  C_6 
    4  A    between atoms: C_6  and  C_7 
    5  A    between atoms: N_9  and  C_10 
    6  A    between atoms: C_10  and  C_11 
    7  A    between atoms: C_30  and  N_31 
    8  A    between atoms: N_31  and  C_33 

>  <TORSDO>
F 8

$$$$
