resistance_project/docking/8faf60323ce63d5a/P00533_T790M/docked/molecule_0007_out.pdbqt
 OpenBabel09142609543D

 99106  0  0  1  0  0  0  0  0999 V2000
  -47.1100   -1.2690  -15.0070 C   0  0  1  0  0  0  0  0  0  0  0  0
  -48.3610   -1.6170  -14.6210 N   0  0  0  0  0  0  0  0  0  0  0  0
  -48.9430   -2.1700  -15.2500 H   0  0  0  0  0  0  0  0  0  0  0  0
  -48.8530   -1.2460  -13.4190 C   0  0  2  0  0  0  0  0  0  0  0  0
  -48.0200   -0.5000  -12.6100 C   0  0  0  0  0  0  0  0  0  0  0  0
  -46.7420   -0.1480  -13.0120 C   0  0  0  0  0  0  0  0  0  0  0  0
  -46.2980   -0.5350  -14.2040 N   0  0  0  0  0  0  0  0  0  0  0  0
  -45.3590   -0.2820  -14.5120 H   0  0  0  0  0  0  0  0  0  0  0  0
  -50.1930   -1.5980  -12.9640 C   0  0  0  0  0  0  0  0  0  0  0  0
  -51.3170   -0.8150  -13.2440 C   0  0  0  0  0  0  0  0  0  0  0  0
  -52.3690   -1.4460  -12.6710 N   0  0  0  0  0  0  0  0  0  0  0  0
  -51.9260   -2.5740  -12.0600 C   0  0  0  0  0  0  0  0  0  0  0  0
  -53.3380   -1.1270  -12.6960 H   0  0  0  0  0  0  0  0  0  0  0  0
  -52.5210   -3.5870  -11.3360 C   0  0  0  0  0  0  0  0  0  0  0  0
  -50.5980   -2.6610  -12.2410 N   0  0  0  0  0  0  0  0  0  0  0  0
  -51.8090   -4.6440  -10.8140 C   0  0  0  0  0  0  0  0  0  0  0  0
  -50.4510   -4.6930  -11.0250 C   0  0  0  0  0  0  0  0  0  0  0  0
  -49.8710   -3.6770  -11.7500 C   0  0  0  0  0  0  0  0  0  0  0  0
  -51.2990    0.4290  -14.0050 C   0  0  0  0  0  0  0  0  0  0  0  0
  -51.5500    0.4600  -15.3400 C   0  0  0  0  0  0  0  0  0  0  0  0
  -51.5310    1.6270  -16.0420 C   0  0  0  0  0  0  0  0  0  0  0  0
  -51.2490    2.8030  -15.3760 C   0  0  0  0  0  0  0  0  0  0  0  0
  -50.9900    2.7970  -14.0140 C   0  0  0  0  0  0  0  0  0  0  0  0
  -51.0160    1.5990  -13.3310 C   0  0  0  0  0  0  0  0  0  0  0  0
  -51.8020    1.6500  -17.4980 C   0  0  0  0  0  0  0  0  0  0  0  0
  -52.3480    2.6730  -17.9860 O   0  0  0  0  0  0  0  0  0  0  0  0
  -51.4360    0.5180  -18.2820 N   0  0  0  0  0  0  0  0  0  0  0  0
  -51.0230   -0.2800  -17.7980 H   0  0  0  0  0  0  0  0  0  0  0  0
  -51.6040    0.4250  -19.6780 C   0  0  0  0  0  0  0  0  0  0  0  0
  -52.8890    0.0800  -20.1220 C   0  0  0  0  0  0  0  0  0  0  0  0
  -53.8880   -0.1450  -19.2210 F   0  0  0  0  0  0  0  0  0  0  0  0
  -53.1290   -0.0290  -21.4840 C   0  0  0  0  0  0  0  0  0  0  0  0
  -52.1280    0.1960  -22.3850 C   0  0  0  0  0  0  0  0  0  0  0  0
  -50.8690    0.5340  -21.9380 C   0  0  0  0  0  0  0  0  0  0  0  0
  -50.5900    0.6530  -20.5940 C   0  0  0  0  0  0  0  0  0  0  0  0
  -49.3800    0.9800  -20.1100 F   0  0  0  0  0  0  0  0  0  0  0  0
  -46.5630   -1.6450  -16.2660 N   0  0  0  0  0  0  0  0  0  0  0  0
  -45.5920   -1.4080  -16.4710 H   0  0  0  0  0  0  0  0  0  0  0  0
  -47.3200   -2.3400  -17.2490 C   0  0  0  0  0  0  0  0  0  0  0  0
  -47.2670   -3.7140  -17.4070 C   0  0  0  0  0  0  0  0  0  0  0  0
  -48.0410   -4.2840  -18.3830 C   0  0  0  0  0  0  0  0  0  0  0  0
  -48.8510   -3.5170  -19.1860 C   0  0  0  0  0  0  0  0  0  0  0  0
  -48.9240   -2.1480  -19.0500 C   0  0  0  0  0  0  0  0  0  0  0  0
  -48.1440   -1.5790  -18.0670 C   0  0  0  0  0  0  0  0  0  0  0  0
  -46.4290   -4.4110  -16.5620 O   0  0  0  0  0  0  0  0  0  0  0  0
  -45.4120   -5.1980  -17.1550 C   0  0  0  0  0  0  0  0  0  0  0  0
  -49.6410   -4.1590  -20.1870 N   0  0  0  0  0  0  0  0  0  0  0  0
  -49.2330   -5.3860  -20.8440 C   0  0  0  0  0  0  0  0  0  0  0  0
  -50.1190   -5.5930  -22.0470 C   0  0  0  0  0  0  0  0  0  0  0  0
  -50.1980   -4.3210  -22.8220 C   0  0  1  0  0  0  0  0  0  0  0  0
  -50.7750   -3.1680  -22.0350 C   0  0  0  0  0  0  0  0  0  0  0  0
  -50.9150   -3.5940  -20.5920 C   0  0  0  0  0  0  0  0  0  0  0  0
  -48.9650   -3.9440  -23.4610 N   0  0  0  0  0  0  0  0  0  0  0  0
  -49.1180   -4.0970  -24.8890 C   0  0  0  0  0  0  0  0  0  0  0  0
  -47.7710   -3.8560  -25.5340 C   0  0  0  0  0  0  0  0  0  0  0  0
  -46.7080   -4.1820  -24.5050 C   0  0  0  0  0  0  0  0  0  0  0  0
  -46.2570   -2.9030  -23.8430 C   0  0  0  0  0  0  0  0  0  0  0  0
  -47.2090   -2.3950  -22.8100 C   0  0  0  0  0  0  0  0  0  0  0  0
  -48.6690   -2.5720  -23.1780 C   0  0  0  0  0  0  0  0  0  0  0  0
  -48.3575   -0.1971  -11.6830 H   0  0  0  0  0  0  0  0  0  0  0  0
  -46.1379    0.4115  -12.3898 H   0  0  0  0  0  0  0  0  0  0  0  0
  -53.5404   -3.5511  -11.1794 H   0  0  0  0  0  0  0  0  0  0  0  0
  -52.2247   -5.5389  -11.2279 H   0  0  0  0  0  0  0  0  0  0  0  0
  -49.8832   -5.4692  -10.6506 H   0  0  0  0  0  0  0  0  0  0  0  0
  -48.8533   -3.6968  -11.9201 H   0  0  0  0  0  0  0  0  0  0  0  0
  -51.7600   -0.4216  -15.8337 H   0  0  0  0  0  0  0  0  0  0  0  0
  -51.2308    3.6940  -15.8964 H   0  0  0  0  0  0  0  0  0  0  0  0
  -50.7805    3.6773  -13.5178 H   0  0  0  0  0  0  0  0  0  0  0  0
  -50.8240    1.5779  -12.3172 H   0  0  0  0  0  0  0  0  0  0  0  0
  -54.0717   -0.2822  -21.8189 H   0  0  0  0  0  0  0  0  0  0  0  0
  -52.3135    0.1133  -23.3968 H   0  0  0  0  0  0  0  0  0  0  0  0
  -50.1180    0.7018  -22.6257 H   0  0  0  0  0  0  0  0  0  0  0  0
  -48.0155   -5.3069  -18.5177 H   0  0  0  0  0  0  0  0  0  0  0  0
  -49.5336   -1.5762  -19.6553 H   0  0  0  0  0  0  0  0  0  0  0  0
  -48.1732   -0.5559  -17.9348 H   0  0  0  0  0  0  0  0  0  0  0  0
  -44.8413   -5.6796  -16.3887 H   0  0  0  0  0  0  0  0  0  0  0  0
  -44.7697   -4.5709  -17.7373 H   0  0  0  0  0  0  0  0  0  0  0  0
  -45.8566   -5.9381  -17.7871 H   0  0  0  0  0  0  0  0  0  0  0  0
  -48.2121   -5.3083  -21.1550 H   0  0  0  0  0  0  0  0  0  0  0  0
  -49.3234   -6.2133  -20.1714 H   0  0  0  0  0  0  0  0  0  0  0  0
  -49.7088   -6.3640  -22.6653 H   0  0  0  0  0  0  0  0  0  0  0  0
  -51.0987   -5.8806  -21.7270 H   0  0  0  0  0  0  0  0  0  0  0  0
  -50.8910   -4.5475  -23.6052 H   0  0  0  0  0  0  0  0  0  0  0  0
  -51.7350   -2.9069  -22.4289 H   0  0  0  0  0  0  0  0  0  0  0  0
  -50.1296   -2.3174  -22.1049 H   0  0  0  0  0  0  0  0  0  0  0  0
  -51.6878   -4.3282  -20.4996 H   0  0  0  0  0  0  0  0  0  0  0  0
  -51.1755   -2.7609  -19.9731 H   0  0  0  0  0  0  0  0  0  0  0  0
  -49.4558   -5.0871  -25.1136 H   0  0  0  0  0  0  0  0  0  0  0  0
  -49.8380   -3.3987  -25.2618 H   0  0  0  0  0  0  0  0  0  0  0  0
  -47.6875   -2.8322  -25.8337 H   0  0  0  0  0  0  0  0  0  0  0  0
  -47.6545   -4.4691  -26.4032 H   0  0  0  0  0  0  0  0  0  0  0  0
  -45.8747   -4.6503  -24.9859 H   0  0  0  0  0  0  0  0  0  0  0  0
  -47.1086   -4.8481  -23.7697 H   0  0  0  0  0  0  0  0  0  0  0  0
  -46.1453   -2.1529  -24.5978 H   0  0  0  0  0  0  0  0  0  0  0  0
  -45.3362   -3.1174  -23.3420 H   0  0  0  0  0  0  0  0  0  0  0  0
  -47.0226   -1.3514  -22.6647 H   0  0  0  0  0  0  0  0  0  0  0  0
  -47.0408   -2.9705  -21.9238 H   0  0  0  0  0  0  0  0  0  0  0  0
  -49.2777   -2.2441  -22.3614 H   0  0  0  0  0  0  0  0  0  0  0  0
  -48.8721   -1.9921  -24.0540 H   0  0  0  0  0  0  0  0  0  0  0  0
  1 37  1  1  0  0  0
  1  2  1  0  0  0  0
  1  7  1  0  0  0  0
  2  4  1  0  0  0  0
  3  2  1  0  0  0  0
  4  9  1  1  0  0  0
  4  5  1  0  0  0  0
  5 60  1  0  0  0  0
  6  5  2  0  0  0  0
  6 61  1  0  0  0  0
  7  6  1  0  0  0  0
  8  7  1  0  0  0  0
  9 15  1  0  0  0  0
 10  9  2  0  0  0  0
 10 11  1  0  0  0  0
 11 12  1  0  0  0  0
 12 14  2  0  0  0  0
 13 11  1  0  0  0  0
 14 16  1  0  0  0  0
 14 62  1  0  0  0  0
 15 12  1  0  0  0  0
 15 18  1  0  0  0  0
 16 63  1  0  0  0  0
 17 16  1  0  0  0  0
 17 64  1  0  0  0  0
 18 17  2  0  0  0  0
 18 65  1  0  0  0  0
 19 24  1  0  0  0  0
 19 10  1  0  0  0  0
 20 19  2  0  0  0  0
 20 66  1  0  0  0  0
 21 22  2  0  0  0  0
 21 20  1  0  0  0  0
 22 23  1  0  0  0  0
 22 67  1  0  0  0  0
 23 24  2  0  0  0  0
 23 68  1  0  0  0  0
 24 69  1  0  0  0  0
 25 21  1  0  0  0  0
 26 25  2  0  0  0  0
 27 28  1  0  0  0  0
 27 25  1  0  0  0  0
 29 27  1  0  0  0  0
 30 29  1  0  0  0  0
 30 31  1  0  0  0  0
 32 30  2  0  0  0  0
 32 70  1  0  0  0  0
 33 34  2  0  0  0  0
 33 32  1  0  0  0  0
 33 71  1  0  0  0  0
 34 35  1  0  0  0  0
 34 72  1  0  0  0  0
 35 36  1  0  0  0  0
 35 29  2  0  0  0  0
 38 37  1  0  0  0  0
 39 37  1  0  0  0  0
 40 39  1  0  0  0  0
 40 45  1  0  0  0  0
 41 40  2  0  0  0  0
 41 73  1  0  0  0  0
 42 43  2  0  0  0  0
 42 41  1  0  0  0  0
 43 44  1  0  0  0  0
 43 74  1  0  0  0  0
 44 39  2  0  0  0  0
 44 75  1  0  0  0  0
 46 45  1  0  0  0  0
 46 76  1  0  0  0  0
 46 77  1  0  0  0  0
 46 78  1  0  0  0  0
 47 42  1  0  0  0  0
 48 47  1  0  0  0  0
 48 79  1  0  0  0  0
 48 80  1  0  0  0  0
 49 48  1  0  0  0  0
 49 81  1  0  0  0  0
 49 82  1  0  0  0  0
 50 49  1  0  0  0  0
 50 51  1  0  0  0  0
 50 83  1  6  0  0  0
 51 52  1  0  0  0  0
 51 84  1  0  0  0  0
 51 85  1  0  0  0  0
 52 47  1  0  0  0  0
 52 86  1  0  0  0  0
 52 87  1  0  0  0  0
 53 59  1  0  0  0  0
 53 50  1  0  0  0  0
 54 53  1  0  0  0  0
 54 88  1  0  0  0  0
 54 89  1  0  0  0  0
 55 54  1  0  0  0  0
 55 56  1  0  0  0  0
 55 90  1  0  0  0  0
 55 91  1  0  0  0  0
 56 57  1  0  0  0  0
 56 92  1  0  0  0  0
 56 93  1  0  0  0  0
 57 58  1  0  0  0  0
 57 94  1  0  0  0  0
 57 95  1  0  0  0  0
 58 96  1  0  0  0  0
 58 97  1  0  0  0  0
 59 58  1  0  0  0  0
 59 98  1  0  0  0  0
 59 99  1  0  0  0  0
M  END
>  <MODEL>
1

>  <REMARK>
 VINA RESULT:      -9.2      0.000      0.000
  9 active torsions:
  status: ('A' for Active; 'I' for Inactive)
    1  A    between atoms: O_2  and  C_3 
    2  A    between atoms: C_4  and  N_5 
    3  A    between atoms: N_5  and  C_7 
    4  A    between atoms: C_10  and  C_11 
    5  A    between atoms: C_12  and  C_13 
    6  A    between atoms: C_15  and  C_16 
       I    between atoms: C_16  and  N_18 
    7  A    between atoms: N_18  and  C_20 
    8  A    between atoms: C_45  and  N_46 
    9  A    between atoms: C_49  and  N_50 

>  <TORSDO>
F 9

$$$$
resistance_project/docking/8faf60323ce63d5a/P00533_T790M/docked/molecule_0007_out.pdbqt
 OpenBabel09142609543D

 99106  0  0  1  0  0  0  0  0999 V2000
  -50.3320   -2.7040  -15.3220 C   0  0  1  0  0  0  0  0  0  0  0  0
  -49.4740   -1.6570  -15.2860 N   0  0  0  0  0  0  0  0  0  0  0  0
  -48.7370   -1.5900  -15.9870 H   0  0  0  0  0  0  0  0  0  0  0  0
  -49.5750   -0.6990  -14.3390 C   0  0  1  0  0  0  0  0  0  0  0  0
  -50.5930   -0.8420  -13.4160 C   0  0  0  0  0  0  0  0  0  0  0  0
  -51.4660   -1.9170  -13.4600 C   0  0  0  0  0  0  0  0  0  0  0  0
  -51.3290   -2.8360  -14.4100 N   0  0  0  0  0  0  0  0  0  0  0  0
  -51.9660   -3.6320  -14.4530 H   0  0  0  0  0  0  0  0  0  0  0  0
  -48.6730    0.4430  -14.2620 C   0  0  0  0  0  0  0  0  0  0  0  0
  -48.9560    1.6730  -14.8640 C   0  0  0  0  0  0  0  0  0  0  0  0
  -47.9060    2.4820  -14.5820 N   0  0  0  0  0  0  0  0  0  0  0  0
  -47.0070    1.7910  -13.8370 C   0  0  0  0  0  0  0  0  0  0  0  0
  -47.8080    3.4530  -14.8810 H   0  0  0  0  0  0  0  0  0  0  0  0
  -45.7830    2.0850  -13.2700 C   0  0  0  0  0  0  0  0  0  0  0  0
  -47.4790    0.5490  -13.6440 N   0  0  0  0  0  0  0  0  0  0  0  0
  -45.0630    1.1650  -12.5400 C   0  0  0  0  0  0  0  0  0  0  0  0
  -45.5850   -0.0960  -12.3680 C   0  0  0  0  0  0  0  0  0  0  0  0
  -46.8070   -0.3740  -12.9380 C   0  0  0  0  0  0  0  0  0  0  0  0
  -50.1580    1.9680  -15.6350 C   0  0  0  0  0  0  0  0  0  0  0  0
  -50.4290    1.3460  -16.8110 C   0  0  0  0  0  0  0  0  0  0  0  0
  -51.5550    1.6280  -17.5250 C   0  0  0  0  0  0  0  0  0  0  0  0
  -52.4370    2.5700  -17.0350 C   0  0  0  0  0  0  0  0  0  0  0  0
  -52.1820    3.2190  -15.8370 C   0  0  0  0  0  0  0  0  0  0  0  0
  -51.0340    2.9120  -15.1370 C   0  0  0  0  0  0  0  0  0  0  0  0
  -51.8390    0.9470  -18.8090 C   0  0  0  0  0  0  0  0  0  0  0  0
  -52.1430   -0.2740  -18.7800 O   0  0  0  0  0  0  0  0  0  0  0  0
  -51.7580    1.6980  -20.0170 N   0  0  0  0  0  0  0  0  0  0  0  0
  -51.4760    2.6760  -19.9490 H   0  0  0  0  0  0  0  0  0  0  0  0
  -52.0380    1.1820  -21.2980 C   0  0  0  0  0  0  0  0  0  0  0  0
  -51.0340    0.3930  -21.8780 C   0  0  0  0  0  0  0  0  0  0  0  0
  -49.8690    0.1630  -21.2060 F   0  0  0  0  0  0  0  0  0  0  0  0
  -51.2410   -0.1500  -23.1380 C   0  0  0  0  0  0  0  0  0  0  0  0
  -52.4080    0.0810  -23.8090 C   0  0  0  0  0  0  0  0  0  0  0  0
  -53.3870    0.8580  -23.2310 C   0  0  0  0  0  0  0  0  0  0  0  0
  -53.2210    1.4140  -21.9810 C   0  0  0  0  0  0  0  0  0  0  0  0
  -54.1460    2.1790  -21.3760 F   0  0  0  0  0  0  0  0  0  0  0  0
  -50.2520   -3.7280  -16.3070 N   0  0  0  0  0  0  0  0  0  0  0  0
  -50.7610   -4.5990  -16.1540 H   0  0  0  0  0  0  0  0  0  0  0  0
  -49.4890   -3.5820  -17.4980 C   0  0  0  0  0  0  0  0  0  0  0  0
  -48.1060   -3.6270  -17.5160 C   0  0  0  0  0  0  0  0  0  0  0  0
  -47.4680   -3.4790  -18.7190 C   0  0  0  0  0  0  0  0  0  0  0  0
  -48.1770   -3.2920  -19.8810 C   0  0  0  0  0  0  0  0  0  0  0  0
  -49.5550   -3.2430  -19.8930 C   0  0  0  0  0  0  0  0  0  0  0  0
  -50.1920   -3.3930  -18.6800 C   0  0  0  0  0  0  0  0  0  0  0  0
  -47.4680   -3.8180  -16.3070 O   0  0  0  0  0  0  0  0  0  0  0  0
  -46.2590   -3.1130  -16.0890 C   0  0  0  0  0  0  0  0  0  0  0  0
  -47.4670   -3.1460  -21.1110 N   0  0  0  0  0  0  0  0  0  0  0  0
  -47.6930   -2.0410  -22.0230 C   0  0  0  0  0  0  0  0  0  0  0  0
  -47.0320   -2.3730  -23.3370 C   0  0  0  0  0  0  0  0  0  0  0  0
  -47.4070   -3.7600  -23.7370 C   0  0  1  0  0  0  0  0  0  0  0  0
  -46.9790   -4.8130  -22.7420 C   0  0  0  0  0  0  0  0  0  0  0  0
  -46.4650   -4.1200  -21.5010 C   0  0  0  0  0  0  0  0  0  0  0  0
  -48.7940   -3.9160  -24.0890 N   0  0  0  0  0  0  0  0  0  0  0  0
  -48.9730   -3.5080  -25.4630 C   0  0  0  0  0  0  0  0  0  0  0  0
  -50.4540   -3.5220  -25.7680 C   0  0  0  0  0  0  0  0  0  0  0  0
  -51.1910   -3.3180  -24.4600 C   0  0  0  0  0  0  0  0  0  0  0  0
  -51.6190   -4.6620  -23.9230 C   0  0  0  0  0  0  0  0  0  0  0  0
  -50.5140   -5.4250  -23.2690 C   0  0  0  0  0  0  0  0  0  0  0  0
  -49.1760   -5.2910  -23.9670 C   0  0  0  0  0  0  0  0  0  0  0  0
  -50.7059   -0.1313  -12.6763 H   0  0  0  0  0  0  0  0  0  0  0  0
  -52.2184   -2.0035  -12.7590 H   0  0  0  0  0  0  0  0  0  0  0  0
  -45.3920    3.0314  -13.3981 H   0  0  0  0  0  0  0  0  0  0  0  0
  -44.9171    1.5811  -11.5651 H   0  0  0  0  0  0  0  0  0  0  0  0
  -45.0756   -0.8126  -11.8276 H   0  0  0  0  0  0  0  0  0  0  0  0
  -47.2160   -1.3141  -12.8197 H   0  0  0  0  0  0  0  0  0  0  0  0
  -49.7662    0.6426  -17.1730 H   0  0  0  0  0  0  0  0  0  0  0  0
  -53.2938    2.7930  -17.5652 H   0  0  0  0  0  0  0  0  0  0  0  0
  -52.8430    3.9232  -15.4734 H   0  0  0  0  0  0  0  0  0  0  0  0
  -50.8303    3.3865  -14.2435 H   0  0  0  0  0  0  0  0  0  0  0  0
  -50.5077   -0.7327  -23.5714 H   0  0  0  0  0  0  0  0  0  0  0  0
  -52.5556   -0.3254  -24.7461 H   0  0  0  0  0  0  0  0  0  0  0  0
  -54.2652    1.0279  -23.7457 H   0  0  0  0  0  0  0  0  0  0  0  0
  -46.4370   -3.5085  -18.7532 H   0  0  0  0  0  0  0  0  0  0  0  0
  -50.0837   -3.1009  -20.7678 H   0  0  0  0  0  0  0  0  0  0  0  0
  -51.2231   -3.3639  -18.6495 H   0  0  0  0  0  0  0  0  0  0  0  0
  -45.8759   -3.3532  -15.1192 H   0  0  0  0  0  0  0  0  0  0  0  0
  -46.4439   -2.0608  -16.1489 H   0  0  0  0  0  0  0  0  0  0  0  0
  -45.5438   -3.3924  -16.8342 H   0  0  0  0  0  0  0  0  0  0  0  0
  -48.7436   -1.9022  -22.1708 H   0  0  0  0  0  0  0  0  0  0  0  0
  -47.2826   -1.1388  -21.6199 H   0  0  0  0  0  0  0  0  0  0  0  0
  -47.3593   -1.6833  -24.0867 H   0  0  0  0  0  0  0  0  0  0  0  0
  -45.9693   -2.3034  -23.2330 H   0  0  0  0  0  0  0  0  0  0  0  0
  -46.8443   -3.9234  -24.6323 H   0  0  0  0  0  0  0  0  0  0  0  0
  -46.2035   -5.4161  -23.1660 H   0  0  0  0  0  0  0  0  0  0  0  0
  -47.8087   -5.4414  -22.4938 H   0  0  0  0  0  0  0  0  0  0  0  0
  -45.5381   -3.6288  -21.7120 H   0  0  0  0  0  0  0  0  0  0  0  0
  -46.2924   -4.8249  -20.7147 H   0  0  0  0  0  0  0  0  0  0  0  0
  -48.5834   -2.5212  -25.6020 H   0  0  0  0  0  0  0  0  0  0  0  0
  -48.4532   -4.1751  -26.1185 H   0  0  0  0  0  0  0  0  0  0  0  0
  -50.7291   -4.4617  -26.1995 H   0  0  0  0  0  0  0  0  0  0  0  0
  -50.7023   -2.7488  -26.4647 H   0  0  0  0  0  0  0  0  0  0  0  0
  -52.0534   -2.7066  -24.6256 H   0  0  0  0  0  0  0  0  0  0  0  0
  -50.5483   -2.8345  -23.7543 H   0  0  0  0  0  0  0  0  0  0  0  0
  -51.9981   -5.2457  -24.7357 H   0  0  0  0  0  0  0  0  0  0  0  0
  -52.3597   -4.4784  -23.1730 H   0  0  0  0  0  0  0  0  0  0  0  0
  -50.4073   -5.0691  -22.2656 H   0  0  0  0  0  0  0  0  0  0  0  0
  -50.7839   -6.4595  -23.3125 H   0  0  0  0  0  0  0  0  0  0  0  0
  -48.4324   -5.8114  -23.4003 H   0  0  0  0  0  0  0  0  0  0  0  0
  -49.2611   -5.7087  -24.9484 H   0  0  0  0  0  0  0  0  0  0  0  0
  1 37  1  6  0  0  0
  1  2  1  0  0  0  0
  1  7  1  0  0  0  0
  2  4  1  0  0  0  0
  3  2  1  0  0  0  0
  4  9  1  1  0  0  0
  4  5  1  0  0  0  0
  5 60  1  0  0  0  0
  6  5  2  0  0  0  0
  6 61  1  0  0  0  0
  7  6  1  0  0  0  0
  8  7  1  0  0  0  0
  9 15  1  0  0  0  0
 10 11  1  0  0  0  0
 10  9  2  0  0  0  0
 11 12  1  0  0  0  0
 12 15  1  0  0  0  0
 12 14  2  0  0  0  0
 13 11  1  0  0  0  0
 14 16  1  0  0  0  0
 14 62  1  0  0  0  0
 15 18  1  0  0  0  0
 16 17  1  0  0  0  0
 16 63  1  0  0  0  0
 17 64  1  0  0  0  0
 18 17  2  0  0  0  0
 18 65  1  0  0  0  0
 19 24  1  0  0  0  0
 19 10  1  0  0  0  0
 20 19  2  0  0  0  0
 20 66  1  0  0  0  0
 21 22  2  0  0  0  0
 21 20  1  0  0  0  0
 22 23  1  0  0  0  0
 22 67  1  0  0  0  0
 23 24  2  0  0  0  0
 23 68  1  0  0  0  0
 24 69  1  0  0  0  0
 25 26  2  0  0  0  0
 25 21  1  0  0  0  0
 27 28  1  0  0  0  0
 27 25  1  0  0  0  0
 29 27  1  0  0  0  0
 30 29  1  0  0  0  0
 30 31  1  0  0  0  0
 32 30  2  0  0  0  0
 32 70  1  0  0  0  0
 33 34  2  0  0  0  0
 33 32  1  0  0  0  0
 33 71  1  0  0  0  0
 34 35  1  0  0  0  0
 34 72  1  0  0  0  0
 35 36  1  0  0  0  0
 35 29  2  0  0  0  0
 37 38  1  0  0  0  0
 39 37  1  0  0  0  0
 40 39  1  0  0  0  0
 40 45  1  0  0  0  0
 41 40  2  0  0  0  0
 41 73  1  0  0  0  0
 42 41  1  0  0  0  0
 43 42  2  0  0  0  0
 43 44  1  0  0  0  0
 43 74  1  0  0  0  0
 44 39  2  0  0  0  0
 44 75  1  0  0  0  0
 45 46  1  0  0  0  0
 46 76  1  0  0  0  0
 46 77  1  0  0  0  0
 46 78  1  0  0  0  0
 47 42  1  0  0  0  0
 48 47  1  0  0  0  0
 48 79  1  0  0  0  0
 48 80  1  0  0  0  0
 49 48  1  0  0  0  0
 49 81  1  0  0  0  0
 49 82  1  0  0  0  0
 50 49  1  0  0  0  0
 50 51  1  0  0  0  0
 50 83  1  6  0  0  0
 51 52  1  0  0  0  0
 51 84  1  0  0  0  0
 51 85  1  0  0  0  0
 52 47  1  0  0  0  0
 52 86  1  0  0  0  0
 52 87  1  0  0  0  0
 53 59  1  0  0  0  0
 53 50  1  0  0  0  0
 54 53  1  0  0  0  0
 54 88  1  0  0  0  0
 54 89  1  0  0  0  0
 55 54  1  0  0  0  0
 55 56  1  0  0  0  0
 55 90  1  0  0  0  0
 55 91  1  0  0  0  0
 56 57  1  0  0  0  0
 56 92  1  0  0  0  0
 56 93  1  0  0  0  0
 57 58  1  0  0  0  0
 57 94  1  0  0  0  0
 57 95  1  0  0  0  0
 58 96  1  0  0  0  0
 58 97  1  0  0  0  0
 59 58  1  0  0  0  0
 59 98  1  0  0  0  0
 59 99  1  0  0  0  0
M  END
>  <REMARK>
 VINA RESULT:      -9.1      1.861      3.829
  9 active torsions:
  status: ('A' for Active; 'I' for Inactive)
    1  A    between atoms: O_2  and  C_3 
    2  A    between atoms: C_4  and  N_5 
    3  A    between atoms: N_5  and  C_7 
    4  A    between atoms: C_10  and  C_11 
    5  A    between atoms: C_12  and  C_13 
    6  A    between atoms: C_15  and  C_16 
       I    between atoms: C_16  and  N_18 
    7  A    between atoms: N_18  and  C_20 
    8  A    between atoms: C_45  and  N_46 
    9  A    between atoms: C_49  and  N_50 

>  <TORSDO>
F 9

$$$$
resistance_project/docking/8faf60323ce63d5a/P00533_T790M/docked/molecule_0007_out.pdbqt
 OpenBabel09142609543D

 99106  0  0  1  0  0  0  0  0999 V2000
  -46.8360   -1.8370  -14.9320 C   0  0  1  0  0  0  0  0  0  0  0  0
  -48.0870   -2.1470  -14.5130 N   0  0  0  0  0  0  0  0  0  0  0  0
  -48.5310   -2.9990  -14.8570 H   0  0  0  0  0  0  0  0  0  0  0  0
  -48.7560   -1.3530  -13.6510 C   0  0  1  0  0  0  0  0  0  0  0  0
  -48.1040   -0.2150  -13.2200 C   0  0  0  0  0  0  0  0  0  0  0  0
  -46.8250    0.0960  -13.6530 C   0  0  0  0  0  0  0  0  0  0  0  0
  -46.2030   -0.7150  -14.5020 N   0  0  0  0  0  0  0  0  0  0  0  0
  -45.2620   -0.4970  -14.8280 H   0  0  0  0  0  0  0  0  0  0  0  0
  -50.1030   -1.6490  -13.1770 C   0  0  0  0  0  0  0  0  0  0  0  0
  -51.2260   -0.9280  -13.5900 C   0  0  0  0  0  0  0  0  0  0  0  0
  -52.2860   -1.4800  -12.9520 N   0  0  0  0  0  0  0  0  0  0  0  0
  -51.8460   -2.5020  -12.1750 C   0  0  0  0  0  0  0  0  0  0  0  0
  -53.2570   -1.1780  -13.0420 H   0  0  0  0  0  0  0  0  0  0  0  0
  -52.4490   -3.4050  -11.3220 C   0  0  0  0  0  0  0  0  0  0  0  0
  -50.5150   -2.6000  -12.3150 N   0  0  0  0  0  0  0  0  0  0  0  0
  -51.7410   -4.3680  -10.6380 C   0  0  0  0  0  0  0  0  0  0  0  0
  -50.3770   -4.4320  -10.8130 C   0  0  0  0  0  0  0  0  0  0  0  0
  -49.7900   -3.5260  -11.6660 C   0  0  0  0  0  0  0  0  0  0  0  0
  -51.2020    0.1930  -14.5230 C   0  0  0  0  0  0  0  0  0  0  0  0
  -51.0840    0.0110  -15.8640 C   0  0  0  0  0  0  0  0  0  0  0  0
  -51.0620    1.0640  -16.7280 C   0  0  0  0  0  0  0  0  0  0  0  0
  -51.1640    2.3440  -16.2230 C   0  0  0  0  0  0  0  0  0  0  0  0
  -51.2850    2.5560  -14.8580 C   0  0  0  0  0  0  0  0  0  0  0  0
  -51.3040    1.4700  -14.0080 C   0  0  0  0  0  0  0  0  0  0  0  0
  -50.9280    0.8540  -18.1880 C   0  0  0  0  0  0  0  0  0  0  0  0
  -49.7830    0.9500  -18.7010 O   0  0  0  0  0  0  0  0  0  0  0  0
  -52.0950    0.5530  -18.9470 N   0  0  0  0  0  0  0  0  0  0  0  0
  -52.9880    0.5220  -18.4530 H   0  0  0  0  0  0  0  0  0  0  0  0
  -52.1020    0.2950  -20.3330 C   0  0  0  0  0  0  0  0  0  0  0  0
  -52.5290    1.3500  -21.1530 C   0  0  0  0  0  0  0  0  0  0  0  0
  -52.9070    2.5390  -20.6010 F   0  0  0  0  0  0  0  0  0  0  0  0
  -52.5610    1.1690  -22.5280 C   0  0  0  0  0  0  0  0  0  0  0  0
  -52.1820   -0.0210  -23.0800 C   0  0  0  0  0  0  0  0  0  0  0  0
  -51.7660   -1.0510  -22.2650 C   0  0  0  0  0  0  0  0  0  0  0  0
  -51.7190   -0.9110  -20.8950 C   0  0  0  0  0  0  0  0  0  0  0  0
  -51.3200   -1.8850  -20.0600 F   0  0  0  0  0  0  0  0  0  0  0  0
  -46.1050   -2.6530  -15.8390 N   0  0  0  0  0  0  0  0  0  0  0  0
  -45.4060   -3.2970  -15.4680 H   0  0  0  0  0  0  0  0  0  0  0  0
  -46.3130   -2.6050  -17.2450 C   0  0  0  0  0  0  0  0  0  0  0  0
  -45.4630   -3.2110  -18.1530 C   0  0  0  0  0  0  0  0  0  0  0  0
  -45.7580   -3.1070  -19.4860 C   0  0  0  0  0  0  0  0  0  0  0  0
  -46.8680   -2.4220  -19.9170 C   0  0  0  0  0  0  0  0  0  0  0  0
  -47.7320   -1.8090  -19.0360 C   0  0  0  0  0  0  0  0  0  0  0  0
  -47.4310   -1.9160  -17.6960 C   0  0  0  0  0  0  0  0  0  0  0  0
  -44.3700   -3.8800  -17.6400 O   0  0  0  0  0  0  0  0  0  0  0  0
  -43.0900   -3.3270  -17.8920 C   0  0  0  0  0  0  0  0  0  0  0  0
  -47.1340   -2.3440  -21.3180 N   0  0  0  0  0  0  0  0  0  0  0  0
  -48.4670   -2.4830  -21.8740 C   0  0  0  0  0  0  0  0  0  0  0  0
  -48.3380   -2.6770  -23.3640 C   0  0  0  0  0  0  0  0  0  0  0  0
  -47.3040   -3.7190  -23.6340 C   0  0  1  0  0  0  0  0  0  0  0  0
  -45.9340   -3.3610  -23.1090 C   0  0  0  0  0  0  0  0  0  0  0  0
  -46.0550   -2.1160  -22.2600 C   0  0  0  0  0  0  0  0  0  0  0  0
  -47.6840   -5.0450  -23.2230 N   0  0  0  0  0  0  0  0  0  0  0  0
  -47.8910   -5.8540  -24.4020 C   0  0  0  0  0  0  0  0  0  0  0  0
  -48.4450   -7.1910  -23.9630 C   0  0  0  0  0  0  0  0  0  0  0  0
  -49.1570   -6.9780  -22.6430 C   0  0  0  0  0  0  0  0  0  0  0  0
  -48.2270   -7.3590  -21.5170 C   0  0  0  0  0  0  0  0  0  0  0  0
  -47.1950   -6.3230  -21.2140 C   0  0  0  0  0  0  0  0  0  0  0  0
  -46.6370   -5.6320  -22.4430 C   0  0  0  0  0  0  0  0  0  0  0  0
  -48.5804    0.4191  -12.5597 H   0  0  0  0  0  0  0  0  0  0  0  0
  -46.3580    0.9531  -13.3178 H   0  0  0  0  0  0  0  0  0  0  0  0
  -53.4716   -3.3563  -11.1918 H   0  0  0  0  0  0  0  0  0  0  0  0
  -52.1408   -5.3177  -10.9262 H   0  0  0  0  0  0  0  0  0  0  0  0
  -49.8110   -5.1393  -10.3186 H   0  0  0  0  0  0  0  0  0  0  0  0
  -48.7687   -3.5586  -11.8106 H   0  0  0  0  0  0  0  0  0  0  0  0
  -51.0092   -0.9482  -16.2373 H   0  0  0  0  0  0  0  0  0  0  0  0
  -51.1501    3.1505  -16.8667 H   0  0  0  0  0  0  0  0  0  0  0  0
  -51.3599    3.5145  -14.4828 H   0  0  0  0  0  0  0  0  0  0  0  0
  -51.3942    1.6115  -12.9897 H   0  0  0  0  0  0  0  0  0  0  0  0
  -52.8738    1.9399  -23.1386 H   0  0  0  0  0  0  0  0  0  0  0  0
  -52.2071   -0.1484  -24.1038 H   0  0  0  0  0  0  0  0  0  0  0  0
  -51.4832   -1.9478  -22.6903 H   0  0  0  0  0  0  0  0  0  0  0  0
  -45.1355   -3.5510  -20.1791 H   0  0  0  0  0  0  0  0  0  0  0  0
  -48.5643   -1.2946  -19.3641 H   0  0  0  0  0  0  0  0  0  0  0  0
  -48.0557   -1.4703  -17.0060 H   0  0  0  0  0  0  0  0  0  0  0  0
  -42.3403   -3.9425  -17.4402 H   0  0  0  0  0  0  0  0  0  0  0  0
  -43.0394   -2.3416  -17.4782 H   0  0  0  0  0  0  0  0  0  0  0  0
  -42.9236   -3.2794  -18.9479 H   0  0  0  0  0  0  0  0  0  0  0  0
  -48.9543   -3.3306  -21.4392 H   0  0  0  0  0  0  0  0  0  0  0  0
  -49.0481   -1.6095  -21.6639 H   0  0  0  0  0  0  0  0  0  0  0  0
  -49.2778   -2.9922  -23.7668 H   0  0  0  0  0  0  0  0  0  0  0  0
  -48.0487   -1.7550  -23.8235 H   0  0  0  0  0  0  0  0  0  0  0  0
  -47.2389   -3.7372  -24.7019 H   0  0  0  0  0  0  0  0  0  0  0  0
  -45.2707   -3.1761  -23.9280 H   0  0  0  0  0  0  0  0  0  0  0  0
  -45.5440   -4.1672  -22.5234 H   0  0  0  0  0  0  0  0  0  0  0  0
  -46.2794   -1.2714  -22.8774 H   0  0  0  0  0  0  0  0  0  0  0  0
  -45.1380   -1.9151  -21.7466 H   0  0  0  0  0  0  0  0  0  0  0  0
  -48.5861   -5.3705  -25.0562 H   0  0  0  0  0  0  0  0  0  0  0  0
  -46.9677   -5.9892  -24.9256 H   0  0  0  0  0  0  0  0  0  0  0  0
  -47.6477   -7.8937  -23.8387 H   0  0  0  0  0  0  0  0  0  0  0  0
  -49.1203   -7.5783  -24.6971 H   0  0  0  0  0  0  0  0  0  0  0  0
  -50.0346   -7.5890  -22.6059 H   0  0  0  0  0  0  0  0  0  0  0  0
  -49.4404   -5.9508  -22.5464 H   0  0  0  0  0  0  0  0  0  0  0  0
  -47.7266   -8.2662  -21.7845 H   0  0  0  0  0  0  0  0  0  0  0  0
  -48.8280   -7.4680  -20.6384 H   0  0  0  0  0  0  0  0  0  0  0  0
  -47.6378   -5.5813  -20.5826 H   0  0  0  0  0  0  0  0  0  0  0  0
  -46.3771   -6.8282  -20.7442 H   0  0  0  0  0  0  0  0  0  0  0  0
  -45.9583   -4.8644  -22.1347 H   0  0  0  0  0  0  0  0  0  0  0  0
  -46.1328   -6.3602  -23.0433 H   0  0  0  0  0  0  0  0  0  0  0  0
  1 37  1  1  0  0  0
  1  2  1  0  0  0  0
  1  7  1  0  0  0  0
  2  4  1  0  0  0  0
  3  2  1  0  0  0  0
  4  5  1  0  0  0  0
  4  9  1  6  0  0  0
  5 60  1  0  0  0  0
  6  5  2  0  0  0  0
  6 61  1  0  0  0  0
  7  6  1  0  0  0  0
  8  7  1  0  0  0  0
  9 15  1  0  0  0  0
 10  9  2  0  0  0  0
 10 11  1  0  0  0  0
 11 12  1  0  0  0  0
 12 14  2  0  0  0  0
 13 11  1  0  0  0  0
 14 16  1  0  0  0  0
 14 62  1  0  0  0  0
 15 12  1  0  0  0  0
 15 18  1  0  0  0  0
 16 63  1  0  0  0  0
 17 16  1  0  0  0  0
 17 64  1  0  0  0  0
 18 17  2  0  0  0  0
 18 65  1  0  0  0  0
 19 24  1  0  0  0  0
 19 10  1  0  0  0  0
 20 19  2  0  0  0  0
 20 66  1  0  0  0  0
 21 22  2  0  0  0  0
 21 20  1  0  0  0  0
 22 23  1  0  0  0  0
 22 67  1  0  0  0  0
 23 24  2  0  0  0  0
 23 68  1  0  0  0  0
 24 69  1  0  0  0  0
 25 21  1  0  0  0  0
 26 25  2  0  0  0  0
 27 28  1  0  0  0  0
 27 25  1  0  0  0  0
 29 27  1  0  0  0  0
 30 31  1  0  0  0  0
 30 29  2  0  0  0  0
 32 30  1  0  0  0  0
 32 70  1  0  0  0  0
 33 32  2  0  0  0  0
 33 34  1  0  0  0  0
 33 71  1  0  0  0  0
 34 35  2  0  0  0  0
 34 72  1  0  0  0  0
 35 29  1  0  0  0  0
 35 36  1  0  0  0  0
 37 38  1  0  0  0  0
 39 37  1  0  0  0  0
 40 45  1  0  0  0  0
 40 39  2  0  0  0  0
 41 40  1  0  0  0  0
 41 73  1  0  0  0  0
 42 41  2  0  0  0  0
 42 43  1  0  0  0  0
 43 44  2  0  0  0  0
 43 74  1  0  0  0  0
 44 39  1  0  0  0  0
 44 75  1  0  0  0  0
 46 45  1  0  0  0  0
 46 76  1  0  0  0  0
 46 77  1  0  0  0  0
 46 78  1  0  0  0  0
 47 42  1  0  0  0  0
 48 47  1  0  0  0  0
 48 79  1  0  0  0  0
 48 80  1  0  0  0  0
 49 48  1  0  0  0  0
 49 81  1  0  0  0  0
 49 82  1  0  0  0  0
 50 49  1  0  0  0  0
 50 53  1  0  0  0  0
 50 51  1  0  0  0  0
 50 83  1  6  0  0  0
 51 52  1  0  0  0  0
 51 84  1  0  0  0  0
 51 85  1  0  0  0  0
 52 47  1  0  0  0  0
 52 86  1  0  0  0  0
 52 87  1  0  0  0  0
 53 59  1  0  0  0  0
 54 55  1  0  0  0  0
 54 53  1  0  0  0  0
 54 88  1  0  0  0  0
 54 89  1  0  0  0  0
 55 56  1  0  0  0  0
 55 90  1  0  0  0  0
 55 91  1  0  0  0  0
 56 57  1  0  0  0  0
 56 92  1  0  0  0  0
 56 93  1  0  0  0  0
 57 58  1  0  0  0  0
 57 94  1  0  0  0  0
 57 95  1  0  0  0  0
 58 96  1  0  0  0  0
 58 97  1  0  0  0  0
 59 58  1  0  0  0  0
 59 98  1  0  0  0  0
 59 99  1  0  0  0  0
M  END
>  <REMARK>
 VINA RESULT:      -8.7      1.590      2.319
  9 active torsions:
  status: ('A' for Active; 'I' for Inactive)
    1  A    between atoms: O_2  and  C_3 
    2  A    between atoms: C_4  and  N_5 
    3  A    between atoms: N_5  and  C_7 
    4  A    between atoms: C_10  and  C_11 
    5  A    between atoms: C_12  and  C_13 
    6  A    between atoms: C_15  and  C_16 
       I    between atoms: C_16  and  N_18 
    7  A    between atoms: N_18  and  C_20 
    8  A    between atoms: C_45  and  N_46 
    9  A    between atoms: C_49  and  N_50 

>  <TORSDO>
F 9

$$$$
resistance_project/docking/8faf60323ce63d5a/P00533_T790M/docked/molecule_0007_out.pdbqt
 OpenBabel09142609543D

 99106  0  0  1  0  0  0  0  0999 V2000
  -48.9710   -3.0730  -16.0510 C   0  0  1  0  0  0  0  0  0  0  0  0
  -49.9300   -2.8940  -15.1110 N   0  0  0  0  0  0  0  0  0  0  0  0
  -50.7170   -3.5420  -15.0710 H   0  0  0  0  0  0  0  0  0  0  0  0
  -49.8670   -1.8750  -14.2280 C   0  0  2  0  0  0  0  0  0  0  0  0
  -48.7790   -1.0300  -14.3300 C   0  0  0  0  0  0  0  0  0  0  0  0
  -47.8020   -1.2200  -15.2940 C   0  0  0  0  0  0  0  0  0  0  0  0
  -47.9050   -2.2370  -16.1430 N   0  0  0  0  0  0  0  0  0  0  0  0
  -47.1930   -2.3860  -16.8570 H   0  0  0  0  0  0  0  0  0  0  0  0
  -50.8770   -1.6450  -13.2020 C   0  0  0  0  0  0  0  0  0  0  0  0
  -51.6110   -0.4580  -13.1150 C   0  0  0  0  0  0  0  0  0  0  0  0
  -52.4430   -0.6050  -12.0560 N   0  0  0  0  0  0  0  0  0  0  0  0
  -52.2410   -1.8290  -11.5060 C   0  0  0  0  0  0  0  0  0  0  0  0
  -53.1140    0.0900  -11.7270 H   0  0  0  0  0  0  0  0  0  0  0  0
  -52.7830   -2.5170  -10.4390 C   0  0  0  0  0  0  0  0  0  0  0  0
  -51.2850   -2.4590  -12.2070 N   0  0  0  0  0  0  0  0  0  0  0  0
  -52.3780   -3.7870  -10.0910 C   0  0  0  0  0  0  0  0  0  0  0  0
  -51.3950   -4.3940  -10.8390 C   0  0  0  0  0  0  0  0  0  0  0  0
  -50.8650   -3.6960  -11.9000 C   0  0  0  0  0  0  0  0  0  0  0  0
  -51.4630    0.6820  -14.0120 C   0  0  0  0  0  0  0  0  0  0  0  0
  -51.6950    0.5830  -15.3470 C   0  0  0  0  0  0  0  0  0  0  0  0
  -51.5540    1.6530  -16.1770 C   0  0  0  0  0  0  0  0  0  0  0  0
  -51.1680    2.8660  -15.6430 C   0  0  0  0  0  0  0  0  0  0  0  0
  -50.9260    2.9930  -14.2840 C   0  0  0  0  0  0  0  0  0  0  0  0
  -51.0760    1.8900  -13.4690 C   0  0  0  0  0  0  0  0  0  0  0  0
  -51.8050    1.5330  -17.6310 C   0  0  0  0  0  0  0  0  0  0  0  0
  -52.3680    2.4920  -18.2190 O   0  0  0  0  0  0  0  0  0  0  0  0
  -51.3990    0.3430  -18.3020 N   0  0  0  0  0  0  0  0  0  0  0  0
  -50.9740   -0.3960  -17.7410 H   0  0  0  0  0  0  0  0  0  0  0  0
  -51.5450    0.1160  -19.6850 C   0  0  0  0  0  0  0  0  0  0  0  0
  -50.3680    0.1720  -20.4460 C   0  0  0  0  0  0  0  0  0  0  0  0
  -49.1730    0.4340  -19.8410 F   0  0  0  0  0  0  0  0  0  0  0  0
  -50.4340   -0.0430  -21.8150 C   0  0  0  0  0  0  0  0  0  0  0  0
  -51.6310   -0.3060  -22.4180 C   0  0  0  0  0  0  0  0  0  0  0  0
  -52.7810   -0.3570  -21.6610 C   0  0  0  0  0  0  0  0  0  0  0  0
  -52.7580   -0.1510  -20.3000 C   0  0  0  0  0  0  0  0  0  0  0  0
  -53.8510   -0.1910  -19.5200 F   0  0  0  0  0  0  0  0  0  0  0  0
  -49.0100   -4.1360  -16.9950 N   0  0  0  0  0  0  0  0  0  0  0  0
  -49.4370   -5.0210  -16.7210 H   0  0  0  0  0  0  0  0  0  0  0  0
  -48.4760   -4.0100  -18.3070 C   0  0  0  0  0  0  0  0  0  0  0  0
  -47.2510   -4.5380  -18.6740 C   0  0  0  0  0  0  0  0  0  0  0  0
  -46.8310   -4.3630  -19.9670 C   0  0  0  0  0  0  0  0  0  0  0  0
  -47.6030   -3.6840  -20.8790 C   0  0  0  0  0  0  0  0  0  0  0  0
  -48.8270   -3.1490  -20.5410 C   0  0  0  0  0  0  0  0  0  0  0  0
  -49.2450   -3.3270  -19.2400 C   0  0  0  0  0  0  0  0  0  0  0  0
  -46.5370   -5.2050  -17.7000 O   0  0  0  0  0  0  0  0  0  0  0  0
  -45.5360   -6.1100  -18.1310 C   0  0  0  0  0  0  0  0  0  0  0  0
  -47.1240   -3.5310  -22.2150 N   0  0  0  0  0  0  0  0  0  0  0  0
  -47.2740   -2.3010  -22.9680 C   0  0  0  0  0  0  0  0  0  0  0  0
  -46.9620   -2.5930  -24.4140 C   0  0  0  0  0  0  0  0  0  0  0  0
  -47.6960   -3.8210  -24.8360 C   0  0  1  0  0  0  0  0  0  0  0  0
  -47.3250   -5.0500  -24.0400 C   0  0  0  0  0  0  0  0  0  0  0  0
  -46.4490   -4.6270  -22.8830 C   0  0  0  0  0  0  0  0  0  0  0  0
  -49.1250   -3.6600  -24.8980 N   0  0  0  0  0  0  0  0  0  0  0  0
  -49.5100   -3.4770  -26.2790 C   0  0  0  0  0  0  0  0  0  0  0  0
  -50.9860   -3.1470  -26.3140 C   0  0  0  0  0  0  0  0  0  0  0  0
  -51.3440   -2.5160  -24.9840 C   0  0  0  0  0  0  0  0  0  0  0  0
  -51.9340   -3.5730  -24.0830 C   0  0  0  0  0  0  0  0  0  0  0  0
  -50.9130   -4.4730  -23.4670 C   0  0  0  0  0  0  0  0  0  0  0  0
  -49.7710   -4.8340  -24.3960 C   0  0  0  0  0  0  0  0  0  0  0  0
  -48.6918   -0.2389  -13.6730 H   0  0  0  0  0  0  0  0  0  0  0  0
  -46.9985   -0.5750  -15.3523 H   0  0  0  0  0  0  0  0  0  0  0  0
  -53.5211   -2.0618   -9.8796 H   0  0  0  0  0  0  0  0  0  0  0  0
  -52.0228   -3.7394   -9.0828 H   0  0  0  0  0  0  0  0  0  0  0  0
  -51.0650   -5.3448  -10.6109 H   0  0  0  0  0  0  0  0  0  0  0  0
  -50.1271   -4.1342  -12.4731 H   0  0  0  0  0  0  0  0  0  0  0  0
  -51.9852   -0.3254  -15.7415 H   0  0  0  0  0  0  0  0  0  0  0  0
  -51.0586    3.6854  -16.2608 H   0  0  0  0  0  0  0  0  0  0  0  0
  -50.6374    3.9008  -13.8871 H   0  0  0  0  0  0  0  0  0  0  0  0
  -50.8991    1.9683  -12.4553 H   0  0  0  0  0  0  0  0  0  0  0  0
  -49.5725   -0.0039  -22.3818 H   0  0  0  0  0  0  0  0  0  0  0  0
  -51.6738   -0.4659  -23.4366 H   0  0  0  0  0  0  0  0  0  0  0  0
  -53.6813   -0.5544  -22.1253 H   0  0  0  0  0  0  0  0  0  0  0  0
  -45.9195   -4.7477  -20.2607 H   0  0  0  0  0  0  0  0  0  0  0  0
  -49.4031   -2.6394  -21.2291 H   0  0  0  0  0  0  0  0  0  0  0  0
  -50.1572   -2.9410  -18.9503 H   0  0  0  0  0  0  0  0  0  0  0  0
  -45.0651   -6.5534  -17.2786 H   0  0  0  0  0  0  0  0  0  0  0  0
  -44.8050   -5.5844  -18.7091 H   0  0  0  0  0  0  0  0  0  0  0  0
  -45.9818   -6.8758  -18.7308 H   0  0  0  0  0  0  0  0  0  0  0  0
  -48.2781   -1.9422  -22.8794 H   0  0  0  0  0  0  0  0  0  0  0  0
  -46.6089   -1.5528  -22.5901 H   0  0  0  0  0  0  0  0  0  0  0  0
  -47.2690   -1.7665  -25.0203 H   0  0  0  0  0  0  0  0  0  0  0  0
  -45.9094   -2.7455  -24.5309 H   0  0  0  0  0  0  0  0  0  0  0  0
  -47.3620   -3.9801  -25.8400 H   0  0  0  0  0  0  0  0  0  0  0  0
  -46.7919   -5.7366  -24.6639 H   0  0  0  0  0  0  0  0  0  0  0  0
  -48.2086   -5.5298  -23.6740 H   0  0  0  0  0  0  0  0  0  0  0  0
  -45.4946   -4.3048  -23.2440 H   0  0  0  0  0  0  0  0  0  0  0  0
  -46.2884   -5.4425  -22.2091 H   0  0  0  0  0  0  0  0  0  0  0  0
  -48.9483   -2.6742  -26.7091 H   0  0  0  0  0  0  0  0  0  0  0  0
  -49.3151   -4.3671  -26.8399 H   0  0  0  0  0  0  0  0  0  0  0  0
  -51.5566   -4.0404  -26.4597 H   0  0  0  0  0  0  0  0  0  0  0  0
  -51.2030   -2.4767  -27.1193 H   0  0  0  0  0  0  0  0  0  0  0  0
  -52.0595   -1.7355  -25.1380 H   0  0  0  0  0  0  0  0  0  0  0  0
  -50.4667   -2.1031  -24.5314 H   0  0  0  0  0  0  0  0  0  0  0  0
  -52.6080   -4.1712  -24.6599 H   0  0  0  0  0  0  0  0  0  0  0  0
  -52.4261   -3.0626  -23.2816 H   0  0  0  0  0  0  0  0  0  0  0  0
  -50.5059   -3.9821  -22.6078 H   0  0  0  0  0  0  0  0  0  0  0  0
  -51.4129   -5.3863  -23.2204 H   0  0  0  0  0  0  0  0  0  0  0  0
  -49.0571   -5.4235  -23.8596 H   0  0  0  0  0  0  0  0  0  0  0  0
  -50.1670   -5.3844  -25.2237 H   0  0  0  0  0  0  0  0  0  0  0  0
  1 37  1  1  0  0  0
  1  2  1  0  0  0  0
  2  3  1  0  0  0  0
  2  4  1  0  0  0  0
  4  9  1  1  0  0  0
  5  4  1  0  0  0  0
  5 60  1  0  0  0  0
  6  5  2  0  0  0  0
  6 61  1  0  0  0  0
  7  1  1  0  0  0  0
  7  6  1  0  0  0  0
  8  7  1  0  0  0  0
  9 10  2  0  0  0  0
  9 15  1  0  0  0  0
 10 11  1  0  0  0  0
 11 13  1  0  0  0  0
 11 12  1  0  0  0  0
 12 14  2  0  0  0  0
 14 16  1  0  0  0  0
 14 62  1  0  0  0  0
 15 18  1  0  0  0  0
 15 12  1  0  0  0  0
 16 63  1  0  0  0  0
 17 16  1  0  0  0  0
 17 64  1  0  0  0  0
 18 17  2  0  0  0  0
 18 65  1  0  0  0  0
 19 24  1  0  0  0  0
 19 10  1  0  0  0  0
 20 19  2  0  0  0  0
 20 66  1  0  0  0  0
 21 22  2  0  0  0  0
 21 20  1  0  0  0  0
 22 23  1  0  0  0  0
 22 67  1  0  0  0  0
 23 24  2  0  0  0  0
 23 68  1  0  0  0  0
 24 69  1  0  0  0  0
 25 21  1  0  0  0  0
 26 25  2  0  0  0  0
 27 28  1  0  0  0  0
 27 25  1  0  0  0  0
 29 27  1  0  0  0  0
 30 31  1  0  0  0  0
 30 29  2  0  0  0  0
 32 30  1  0  0  0  0
 32 70  1  0  0  0  0
 33 32  2  0  0  0  0
 33 34  1  0  0  0  0
 33 71  1  0  0  0  0
 34 35  2  0  0  0  0
 34 72  1  0  0  0  0
 35 29  1  0  0  0  0
 35 36  1  0  0  0  0
 37 38  1  0  0  0  0
 39 37  1  0  0  0  0
 40 39  1  0  0  0  0
 40 45  1  0  0  0  0
 41 40  2  0  0  0  0
 41 73  1  0  0  0  0
 42 43  2  0  0  0  0
 42 41  1  0  0  0  0
 43 44  1  0  0  0  0
 43 74  1  0  0  0  0
 44 39  2  0  0  0  0
 44 75  1  0  0  0  0
 46 45  1  0  0  0  0
 46 76  1  0  0  0  0
 46 77  1  0  0  0  0
 46 78  1  0  0  0  0
 47 42  1  0  0  0  0
 48 47  1  0  0  0  0
 48 79  1  0  0  0  0
 48 80  1  0  0  0  0
 49 48  1  0  0  0  0
 49 81  1  0  0  0  0
 49 82  1  0  0  0  0
 50 49  1  0  0  0  0
 50 51  1  0  0  0  0
 50 83  1  6  0  0  0
 51 52  1  0  0  0  0
 51 84  1  0  0  0  0
 51 85  1  0  0  0  0
 52 47  1  0  0  0  0
 52 86  1  0  0  0  0
 52 87  1  0  0  0  0
 53 50  1  0  0  0  0
 53 59  1  0  0  0  0
 54 53  1  0  0  0  0
 54 88  1  0  0  0  0
 54 89  1  0  0  0  0
 55 54  1  0  0  0  0
 55 56  1  0  0  0  0
 55 90  1  0  0  0  0
 55 91  1  0  0  0  0
 56 57  1  0  0  0  0
 56 92  1  0  0  0  0
 56 93  1  0  0  0  0
 57 58  1  0  0  0  0
 57 94  1  0  0  0  0
 57 95  1  0  0  0  0
 58 96  1  0  0  0  0
 58 97  1  0  0  0  0
 59 58  1  0  0  0  0
 59 98  1  0  0  0  0
 59 99  1  0  0  0  0
M  END
>  <REMARK>
 VINA RESULT:      -8.6      1.304      2.596
  9 active torsions:
  status: ('A' for Active; 'I' for Inactive)
    1  A    between atoms: O_2  and  C_3 
    2  A    between atoms: C_4  and  N_5 
    3  A    between atoms: N_5  and  C_7 
    4  A    between atoms: C_10  and  C_11 
    5  A    between atoms: C_12  and  C_13 
    6  A    between atoms: C_15  and  C_16 
       I    between atoms: C_16  and  N_18 
    7  A    between atoms: N_18  and  C_20 
    8  A    between atoms: C_45  and  N_46 
    9  A    between atoms: C_49  and  N_50 

>  <TORSDO>
F 9

$$$$
resistance_project/docking/8faf60323ce63d5a/P00533_T790M/docked/molecule_0007_out.pdbqt
 OpenBabel09142609543D

 99106  0  0  1  0  0  0  0  0999 V2000
  -48.3850   -2.9570  -15.8790 C   0  0  1  0  0  0  0  0  0  0  0  0
  -47.8300   -1.7590  -15.5760 N   0  0  0  0  0  0  0  0  0  0  0  0
  -46.9250   -1.5110  -15.9770 H   0  0  0  0  0  0  0  0  0  0  0  0
  -48.4490   -0.8860  -14.7530 C   0  0  1  0  0  0  0  0  0  0  0  0
  -49.6710   -1.2750  -14.2400 C   0  0  0  0  0  0  0  0  0  0  0  0
  -50.2320   -2.5020  -14.5540 C   0  0  0  0  0  0  0  0  0  0  0  0
  -49.5870   -3.3300  -15.3690 N   0  0  0  0  0  0  0  0  0  0  0  0
  -49.9890   -4.2360  -15.6080 H   0  0  0  0  0  0  0  0  0  0  0  0
  -47.8870    0.4120  -14.3990 C   0  0  0  0  0  0  0  0  0  0  0  0
  -48.5110    1.6200  -14.7220 C   0  0  0  0  0  0  0  0  0  0  0  0
  -47.7100    2.6010  -14.2390 N   0  0  0  0  0  0  0  0  0  0  0  0
  -46.6340    2.0320  -13.6400 C   0  0  0  0  0  0  0  0  0  0  0  0
  -47.8880    3.6030  -14.3120 H   0  0  0  0  0  0  0  0  0  0  0  0
  -45.5160    2.5130  -12.9880 C   0  0  0  0  0  0  0  0  0  0  0  0
  -46.7450    0.6980  -13.7410 N   0  0  0  0  0  0  0  0  0  0  0  0
  -44.5500    1.6860  -12.4610 C   0  0  0  0  0  0  0  0  0  0  0  0
  -44.7060    0.3250  -12.5870 C   0  0  0  0  0  0  0  0  0  0  0  0
  -45.8260   -0.1410  -13.2380 C   0  0  0  0  0  0  0  0  0  0  0  0
  -49.7740    1.7410  -15.4420 C   0  0  0  0  0  0  0  0  0  0  0  0
  -49.9720    1.1550  -16.6510 C   0  0  0  0  0  0  0  0  0  0  0  0
  -51.1550    1.2750  -17.3160 C   0  0  0  0  0  0  0  0  0  0  0  0
  -52.1730    2.0090  -16.7420 C   0  0  0  0  0  0  0  0  0  0  0  0
  -51.9950    2.6170  -15.5090 C   0  0  0  0  0  0  0  0  0  0  0  0
  -50.7850    2.4790  -14.8600 C   0  0  0  0  0  0  0  0  0  0  0  0
  -51.3600    0.6350  -18.6360 C   0  0  0  0  0  0  0  0  0  0  0  0
  -51.3790   -0.6220  -18.6910 O   0  0  0  0  0  0  0  0  0  0  0  0
  -51.5260    1.4640  -19.7820 N   0  0  0  0  0  0  0  0  0  0  0  0
  -51.4690    2.4740  -19.6490 H   0  0  0  0  0  0  0  0  0  0  0  0
  -51.7650    0.9860  -21.0870 C   0  0  0  0  0  0  0  0  0  0  0  0
  -52.9900    1.3520  -21.6620 C   0  0  0  0  0  0  0  0  0  0  0  0
  -53.8710    2.1260  -20.9660 F   0  0  0  0  0  0  0  0  0  0  0  0
  -53.2930    0.9180  -22.9450 C   0  0  0  0  0  0  0  0  0  0  0  0
  -52.4100    0.1430  -23.6410 C   0  0  0  0  0  0  0  0  0  0  0  0
  -51.2090   -0.2120  -23.0660 C   0  0  0  0  0  0  0  0  0  0  0  0
  -50.8700    0.1990  -21.7950 C   0  0  0  0  0  0  0  0  0  0  0  0
  -49.7130   -0.1200  -21.1920 F   0  0  0  0  0  0  0  0  0  0  0  0
  -47.7580   -3.8970  -16.7420 N   0  0  0  0  0  0  0  0  0  0  0  0
  -46.8870   -4.3360  -16.4430 H   0  0  0  0  0  0  0  0  0  0  0  0
  -48.3010   -4.2490  -18.0090 C   0  0  0  0  0  0  0  0  0  0  0  0
  -47.9810   -5.4250  -18.6640 C   0  0  0  0  0  0  0  0  0  0  0  0
  -48.5650   -5.6690  -19.8790 C   0  0  0  0  0  0  0  0  0  0  0  0
  -49.4450   -4.7730  -20.4370 C   0  0  0  0  0  0  0  0  0  0  0  0
  -49.7810   -3.5950  -19.8080 C   0  0  0  0  0  0  0  0  0  0  0  0
  -49.1920   -3.3540  -18.5850 C   0  0  0  0  0  0  0  0  0  0  0  0
  -47.0890   -6.2710  -18.0370 O   0  0  0  0  0  0  0  0  0  0  0  0
  -45.8220   -6.4470  -18.6430 C   0  0  0  0  0  0  0  0  0  0  0  0
  -50.0290   -5.0740  -21.7050 N   0  0  0  0  0  0  0  0  0  0  0  0
  -49.4620   -6.0450  -22.6210 C   0  0  0  0  0  0  0  0  0  0  0  0
  -50.1270   -5.8710  -23.9630 C   0  0  0  0  0  0  0  0  0  0  0  0
  -50.1360   -4.4220  -24.3210 C   0  0  1  0  0  0  0  0  0  0  0  0
  -50.8860   -3.5600  -23.3340 C   0  0  0  0  0  0  0  0  0  0  0  0
  -51.2430   -4.4050  -22.1320 C   0  0  0  0  0  0  0  0  0  0  0  0
  -48.8330   -3.8770  -24.5960 N   0  0  0  0  0  0  0  0  0  0  0  0
  -48.7510   -3.5600  -26.0030 C   0  0  0  0  0  0  0  0  0  0  0  0
  -47.3290   -3.1420  -26.3080 C   0  0  0  0  0  0  0  0  0  0  0  0
  -46.4310   -3.7970  -25.2790 C   0  0  0  0  0  0  0  0  0  0  0  0
  -46.1420   -2.8050  -24.1790 C   0  0  0  0  0  0  0  0  0  0  0  0
  -47.2650   -2.6440  -23.2070 C   0  0  0  0  0  0  0  0  0  0  0  0
  -48.6400   -2.6740  -23.8450 C   0  0  0  0  0  0  0  0  0  0  0  0
  -50.1782   -0.6363  -13.6077 H   0  0  0  0  0  0  0  0  0  0  0  0
  -51.1457   -2.7716  -14.1572 H   0  0  0  0  0  0  0  0  0  0  0  0
  -45.3999    3.5339  -12.8919 H   0  0  0  0  0  0  0  0  0  0  0  0
  -44.4883    1.9005  -11.4145 H   0  0  0  0  0  0  0  0  0  0  0  0
  -44.0039   -0.3276  -12.2047 H   0  0  0  0  0  0  0  0  0  0  0  0
  -45.9621   -1.1587  -13.3416 H   0  0  0  0  0  0  0  0  0  0  0  0
  -49.2085    0.6059  -17.0760 H   0  0  0  0  0  0  0  0  0  0  0  0
  -53.0745    2.1061  -17.2349 H   0  0  0  0  0  0  0  0  0  0  0  0
  -52.7575    3.1658  -15.0819 H   0  0  0  0  0  0  0  0  0  0  0  0
  -50.6363    2.9264  -13.9420 H   0  0  0  0  0  0  0  0  0  0  0  0
  -54.1924    1.1830  -23.3762 H   0  0  0  0  0  0  0  0  0  0  0  0
  -52.6414   -0.1759  -24.5948 H   0  0  0  0  0  0  0  0  0  0  0  0
  -50.5485   -0.7989  -23.5992 H   0  0  0  0  0  0  0  0  0  0  0  0
  -48.3402   -6.5406  -20.3839 H   0  0  0  0  0  0  0  0  0  0  0  0
  -50.4418   -2.9249  -20.2316 H   0  0  0  0  0  0  0  0  0  0  0  0
  -49.4204   -2.4819  -18.0827 H   0  0  0  0  0  0  0  0  0  0  0  0
  -45.2364   -7.1229  -18.0555 H   0  0  0  0  0  0  0  0  0  0  0  0
  -45.3220   -5.5030  -18.7049 H   0  0  0  0  0  0  0  0  0  0  0  0
  -45.9498   -6.8481  -19.6267 H   0  0  0  0  0  0  0  0  0  0  0  0
  -48.4086   -5.8823  -22.7149 H   0  0  0  0  0  0  0  0  0  0  0  0
  -49.6235   -7.0372  -22.2544 H   0  0  0  0  0  0  0  0  0  0  0  0
  -49.5853   -6.4197  -24.7049 H   0  0  0  0  0  0  0  0  0  0  0  0
  -51.1316   -6.2366  -23.9170 H   0  0  0  0  0  0  0  0  0  0  0  0
  -50.6799   -4.3943  -25.2420 H   0  0  0  0  0  0  0  0  0  0  0  0
  -51.7787   -3.1841  -23.7887 H   0  0  0  0  0  0  0  0  0  0  0  0
  -50.2769   -2.7335  -23.0328 H   0  0  0  0  0  0  0  0  0  0  0  0
  -51.9857   -5.1275  -22.3989 H   0  0  0  0  0  0  0  0  0  0  0  0
  -51.6407   -3.7988  -21.3450 H   0  0  0  0  0  0  0  0  0  0  0  0
  -49.0088   -4.4205  -26.5844 H   0  0  0  0  0  0  0  0  0  0  0  0
  -49.4301   -2.7694  -26.2453 H   0  0  0  0  0  0  0  0  0  0  0  0
  -47.2399   -2.0775  -26.2459 H   0  0  0  0  0  0  0  0  0  0  0  0
  -47.0515   -3.4433  -27.2965 H   0  0  0  0  0  0  0  0  0  0  0  0
  -45.5141   -4.0972  -25.7417 H   0  0  0  0  0  0  0  0  0  0  0  0
  -46.9162   -4.6590  -24.8711 H   0  0  0  0  0  0  0  0  0  0  0  0
  -45.9426   -1.8534  -24.6258 H   0  0  0  0  0  0  0  0  0  0  0  0
  -45.3041   -3.1812  -23.6301 H   0  0  0  0  0  0  0  0  0  0  0  0
  -47.1460   -1.7053  -22.7075 H   0  0  0  0  0  0  0  0  0  0  0  0
  -47.2162   -3.4761  -22.5360 H   0  0  0  0  0  0  0  0  0  0  0  0
  -49.3830   -2.6184  -23.0770 H   0  0  0  0  0  0  0  0  0  0  0  0
  -48.7243   -1.8404  -24.5106 H   0  0  0  0  0  0  0  0  0  0  0  0
  1 37  1  6  0  0  0
  1  2  1  0  0  0  0
  1  7  1  0  0  0  0
  2  4  1  0  0  0  0
  3  2  1  0  0  0  0
  4  9  1  1  0  0  0
  4  5  1  0  0  0  0
  5 60  1  0  0  0  0
  6  5  2  0  0  0  0
  6 61  1  0  0  0  0
  7  6  1  0  0  0  0
  8  7  1  0  0  0  0
  9 15  1  0  0  0  0
 10  9  2  0  0  0  0
 10 11  1  0  0  0  0
 11 12  1  0  0  0  0
 12 14  2  0  0  0  0
 13 11  1  0  0  0  0
 14 16  1  0  0  0  0
 14 62  1  0  0  0  0
 15 12  1  0  0  0  0
 15 18  1  0  0  0  0
 16 63  1  0  0  0  0
 17 16  1  0  0  0  0
 17 64  1  0  0  0  0
 18 17  2  0  0  0  0
 18 65  1  0  0  0  0
 19 24  1  0  0  0  0
 19 10  1  0  0  0  0
 20 19  2  0  0  0  0
 20 66  1  0  0  0  0
 21 22  2  0  0  0  0
 21 20  1  0  0  0  0
 22 23  1  0  0  0  0
 22 67  1  0  0  0  0
 23 24  2  0  0  0  0
 23 68  1  0  0  0  0
 24 69  1  0  0  0  0
 25 21  1  0  0  0  0
 26 25  2  0  0  0  0
 27 28  1  0  0  0  0
 27 25  1  0  0  0  0
 29 27  1  0  0  0  0
 30 29  1  0  0  0  0
 30 31  1  0  0  0  0
 32 30  2  0  0  0  0
 32 70  1  0  0  0  0
 33 34  2  0  0  0  0
 33 32  1  0  0  0  0
 33 71  1  0  0  0  0
 34 35  1  0  0  0  0
 34 72  1  0  0  0  0
 35 36  1  0  0  0  0
 35 29  2  0  0  0  0
 37 38  1  0  0  0  0
 39 37  1  0  0  0  0
 40 45  1  0  0  0  0
 40 39  2  0  0  0  0
 41 40  1  0  0  0  0
 41 73  1  0  0  0  0
 42 41  2  0  0  0  0
 42 43  1  0  0  0  0
 43 44  2  0  0  0  0
 43 74  1  0  0  0  0
 44 39  1  0  0  0  0
 44 75  1  0  0  0  0
 46 45  1  0  0  0  0
 46 76  1  0  0  0  0
 46 77  1  0  0  0  0
 46 78  1  0  0  0  0
 47 42  1  0  0  0  0
 48 47  1  0  0  0  0
 48 79  1  0  0  0  0
 48 80  1  0  0  0  0
 49 48  1  0  0  0  0
 49 81  1  0  0  0  0
 49 82  1  0  0  0  0
 50 49  1  0  0  0  0
 50 51  1  0  0  0  0
 50 83  1  6  0  0  0
 51 52  1  0  0  0  0
 51 84  1  0  0  0  0
 51 85  1  0  0  0  0
 52 47  1  0  0  0  0
 52 86  1  0  0  0  0
 52 87  1  0  0  0  0
 53 50  1  0  0  0  0
 53 59  1  0  0  0  0
 54 53  1  0  0  0  0
 54 88  1  0  0  0  0
 54 89  1  0  0  0  0
 55 54  1  0  0  0  0
 55 56  1  0  0  0  0
 55 90  1  0  0  0  0
 55 91  1  0  0  0  0
 56 57  1  0  0  0  0
 56 92  1  0  0  0  0
 56 93  1  0  0  0  0
 57 58  1  0  0  0  0
 57 94  1  0  0  0  0
 57 95  1  0  0  0  0
 58 96  1  0  0  0  0
 58 97  1  0  0  0  0
 59 58  1  0  0  0  0
 59 98  1  0  0  0  0
 59 99  1  0  0  0  0
M  END
>  <REMARK>
 VINA RESULT:      -8.4      1.983      3.365
  9 active torsions:
  status: ('A' for Active; 'I' for Inactive)
    1  A    between atoms: O_2  and  C_3 
    2  A    between atoms: C_4  and  N_5 
    3  A    between atoms: N_5  and  C_7 
    4  A    between atoms: C_10  and  C_11 
    5  A    between atoms: C_12  and  C_13 
    6  A    between atoms: C_15  and  C_16 
       I    between atoms: C_16  and  N_18 
    7  A    between atoms: N_18  and  C_20 
    8  A    between atoms: C_45  and  N_46 
    9  A    between atoms: C_49  and  N_50 

>  <TORSDO>
F 9

$$$$
resistance_project/docking/8faf60323ce63d5a/P00533_T790M/docked/molecule_0007_out.pdbqt
 OpenBabel09142609543D

 99106  0  0  1  0  0  0  0  0999 V2000
  -49.6700    0.2220  -16.7000 C   0  0  1  0  0  0  0  0  0  0  0  0
  -49.8170   -0.2500  -15.4380 N   0  0  0  0  0  0  0  0  0  0  0  0
  -49.1210   -0.8940  -15.0610 H   0  0  0  0  0  0  0  0  0  0  0  0
  -50.8660    0.1130  -14.6700 C   0  0  2  0  0  0  0  0  0  0  0  0
  -51.7750    0.9870  -15.2330 C   0  0  0  0  0  0  0  0  0  0  0  0
  -51.6190    1.4650  -16.5230 C   0  0  0  0  0  0  0  0  0  0  0  0
  -50.5700    1.0800  -17.2440 N   0  0  0  0  0  0  0  0  0  0  0  0
  -50.4440    1.4250  -18.1950 H   0  0  0  0  0  0  0  0  0  0  0  0
  -51.0630   -0.3710  -13.3090 C   0  0  0  0  0  0  0  0  0  0  0  0
  -50.9110    0.4450  -12.1850 C   0  0  0  0  0  0  0  0  0  0  0  0
  -51.1720   -0.3370  -11.1110 N   0  0  0  0  0  0  0  0  0  0  0  0
  -51.4750   -1.5880  -11.5420 C   0  0  0  0  0  0  0  0  0  0  0  0
  -51.1460   -0.0360  -10.1360 H   0  0  0  0  0  0  0  0  0  0  0  0
  -51.8180   -2.7740  -10.9240 C   0  0  0  0  0  0  0  0  0  0  0  0
  -51.4070   -1.6040  -12.8830 N   0  0  0  0  0  0  0  0  0  0  0  0
  -52.0820   -3.9280  -11.6270 C   0  0  0  0  0  0  0  0  0  0  0  0
  -52.0000   -3.8980  -13.0000 C   0  0  0  0  0  0  0  0  0  0  0  0
  -51.6580   -2.7090  -13.6020 C   0  0  0  0  0  0  0  0  0  0  0  0
  -50.5380    1.8550  -12.2220 C   0  0  0  0  0  0  0  0  0  0  0  0
  -51.4660    2.8460  -12.1980 C   0  0  0  0  0  0  0  0  0  0  0  0
  -51.1080    4.1600  -12.2330 C   0  0  0  0  0  0  0  0  0  0  0  0
  -49.7680    4.4850  -12.2940 C   0  0  0  0  0  0  0  0  0  0  0  0
  -48.8020    3.4920  -12.3190 C   0  0  0  0  0  0  0  0  0  0  0  0
  -49.1950    2.1700  -12.2830 C   0  0  0  0  0  0  0  0  0  0  0  0
  -52.1290    5.2320  -12.2110 C   0  0  0  0  0  0  0  0  0  0  0  0
  -51.8000    6.3570  -11.7530 O   0  0  0  0  0  0  0  0  0  0  0  0
  -53.4340    4.9480  -12.7070 N   0  0  0  0  0  0  0  0  0  0  0  0
  -53.6210    4.0000  -13.0340 H   0  0  0  0  0  0  0  0  0  0  0  0
  -54.4840    5.8860  -12.7760 C   0  0  0  0  0  0  0  0  0  0  0  0
  -54.5660    6.6320  -13.9610 C   0  0  0  0  0  0  0  0  0  0  0  0
  -53.6610    6.4300  -14.9620 F   0  0  0  0  0  0  0  0  0  0  0  0
  -55.5750    7.5740  -14.1010 C   0  0  0  0  0  0  0  0  0  0  0  0
  -56.4800    7.7750  -13.0980 C   0  0  0  0  0  0  0  0  0  0  0  0
  -56.3900    7.0370  -11.9380 C   0  0  0  0  0  0  0  0  0  0  0  0
  -55.4030    6.0920  -11.7600 C   0  0  0  0  0  0  0  0  0  0  0  0
  -55.2740    5.3490  -10.6480 F   0  0  0  0  0  0  0  0  0  0  0  0
  -48.5770   -0.1420  -17.5330 N   0  0  0  0  0  0  0  0  0  0  0  0
  -47.6410    0.1810  -17.2860 H   0  0  0  0  0  0  0  0  0  0  0  0
  -48.7390   -0.9410  -18.6990 C   0  0  0  0  0  0  0  0  0  0  0  0
  -48.9050   -2.3140  -18.6530 C   0  0  0  0  0  0  0  0  0  0  0  0
  -49.0580   -2.9880  -19.8360 C   0  0  0  0  0  0  0  0  0  0  0  0
  -49.0490   -2.3230  -21.0390 C   0  0  0  0  0  0  0  0  0  0  0  0
  -48.8870   -0.9570  -21.1140 C   0  0  0  0  0  0  0  0  0  0  0  0
  -48.7330   -0.2830  -19.9210 C   0  0  0  0  0  0  0  0  0  0  0  0
  -48.9020   -2.9060  -17.4070 O   0  0  0  0  0  0  0  0  0  0  0  0
  -50.1180   -3.4670  -16.9490 C   0  0  0  0  0  0  0  0  0  0  0  0
  -49.2150   -3.0700  -22.2440 N   0  0  0  0  0  0  0  0  0  0  0  0
  -48.4890   -2.7680  -23.4630 C   0  0  0  0  0  0  0  0  0  0  0  0
  -49.1380   -3.5200  -24.5970 C   0  0  0  0  0  0  0  0  0  0  0  0
  -50.6150   -3.3170  -24.5380 C   0  0  1  0  0  0  0  0  0  0  0  0
  -51.2420   -3.8110  -23.2560 C   0  0  0  0  0  0  0  0  0  0  0  0
  -50.1380   -4.1880  -22.2950 C   0  0  0  0  0  0  0  0  0  0  0  0
  -51.0350   -1.9730  -24.8340 N   0  0  0  0  0  0  0  0  0  0  0  0
  -51.6630   -1.9610  -26.1360 C   0  0  0  0  0  0  0  0  0  0  0  0
  -51.9520   -0.5220  -26.5030 C   0  0  0  0  0  0  0  0  0  0  0  0
  -50.9610    0.3470  -25.7560 C   0  0  0  0  0  0  0  0  0  0  0  0
  -51.6180    0.8750  -24.5050 C   0  0  0  0  0  0  0  0  0  0  0  0
  -51.6890   -0.1250  -23.3980 C   0  0  0  0  0  0  0  0  0  0  0  0
  -51.9910   -1.5360  -23.8620 C   0  0  0  0  0  0  0  0  0  0  0  0
  -52.5905    1.2913  -14.6786 H   0  0  0  0  0  0  0  0  0  0  0  0
  -52.3127    2.1162  -16.9227 H   0  0  0  0  0  0  0  0  0  0  0  0
  -51.8789   -2.7964   -9.8940 H   0  0  0  0  0  0  0  0  0  0  0  0
  -51.3902   -4.6697  -11.2862 H   0  0  0  0  0  0  0  0  0  0  0  0
  -52.1895   -4.7426  -13.5619 H   0  0  0  0  0  0  0  0  0  0  0  0
  -51.5929   -2.6659  -14.6310 H   0  0  0  0  0  0  0  0  0  0  0  0
  -52.4667    2.5978  -12.1521 H   0  0  0  0  0  0  0  0  0  0  0  0
  -49.4830    5.4765  -12.3212 H   0  0  0  0  0  0  0  0  0  0  0  0
  -47.8008    3.7383  -12.3640 H   0  0  0  0  0  0  0  0  0  0  0  0
  -48.4875    1.4189  -12.3016 H   0  0  0  0  0  0  0  0  0  0  0  0
  -55.6422    8.1271  -14.9697 H   0  0  0  0  0  0  0  0  0  0  0  0
  -57.2284    8.4770  -13.2086 H   0  0  0  0  0  0  0  0  0  0  0  0
  -57.0777    7.1956  -11.1850 H   0  0  0  0  0  0  0  0  0  0  0  0
  -49.1821   -4.0124  -19.8237 H   0  0  0  0  0  0  0  0  0  0  0  0
  -48.8812   -0.4620  -22.0195 H   0  0  0  0  0  0  0  0  0  0  0  0
  -48.6096    0.7415  -19.9372 H   0  0  0  0  0  0  0  0  0  0  0  0
  -49.9723   -3.8886  -15.9764 H   0  0  0  0  0  0  0  0  0  0  0  0
  -50.4348   -4.2327  -17.6259 H   0  0  0  0  0  0  0  0  0  0  0  0
  -50.8662   -2.7038  -16.8984 H   0  0  0  0  0  0  0  0  0  0  0  0
  -48.5280   -1.7164  -23.6566 H   0  0  0  0  0  0  0  0  0  0  0  0
  -47.4643   -3.0601  -23.3647 H   0  0  0  0  0  0  0  0  0  0  0  0
  -48.7634   -3.1539  -25.5300 H   0  0  0  0  0  0  0  0  0  0  0  0
  -48.9146   -4.5629  -24.5114 H   0  0  0  0  0  0  0  0  0  0  0  0
  -50.9858   -3.9344  -25.3294 H   0  0  0  0  0  0  0  0  0  0  0  0
  -51.8515   -4.6667  -23.4589 H   0  0  0  0  0  0  0  0  0  0  0  0
  -51.8537   -3.0442  -22.8284 H   0  0  0  0  0  0  0  0  0  0  0  0
  -49.6330   -5.0651  -22.6423 H   0  0  0  0  0  0  0  0  0  0  0  0
  -50.5346   -4.3984  -21.3237 H   0  0  0  0  0  0  0  0  0  0  0  0
  -51.0058   -2.3953  -26.8601 H   0  0  0  0  0  0  0  0  0  0  0  0
  -52.5698   -2.5287  -26.1163 H   0  0  0  0  0  0  0  0  0  0  0  0
  -52.9507   -0.2657  -26.2170 H   0  0  0  0  0  0  0  0  0  0  0  0
  -51.8591   -0.3767  -27.5590 H   0  0  0  0  0  0  0  0  0  0  0  0
  -50.6617    1.1653  -26.3770 H   0  0  0  0  0  0  0  0  0  0  0  0
  -50.0980   -0.2296  -25.4959 H   0  0  0  0  0  0  0  0  0  0  0  0
  -52.6140    1.1802  -24.7493 H   0  0  0  0  0  0  0  0  0  0  0  0
  -51.0170    1.6880  -24.1547 H   0  0  0  0  0  0  0  0  0  0  0  0
  -52.4586    0.1782  -22.7192 H   0  0  0  0  0  0  0  0  0  0  0  0
  -50.7224   -0.1494  -22.9397 H   0  0  0  0  0  0  0  0  0  0  0  0
  -51.9599   -2.1953  -23.0198 H   0  0  0  0  0  0  0  0  0  0  0  0
  -52.9622   -1.5463  -24.3110 H   0  0  0  0  0  0  0  0  0  0  0  0
  1 37  1  1  0  0  0
  1  2  1  0  0  0  0
  2  3  1  0  0  0  0
  2  4  1  0  0  0  0
  4  9  1  1  0  0  0
  5  4  1  0  0  0  0
  5 60  1  0  0  0  0
  6  5  2  0  0  0  0
  6 61  1  0  0  0  0
  7  1  1  0  0  0  0
  7  6  1  0  0  0  0
  8  7  1  0  0  0  0
  9 15  1  0  0  0  0
  9 10  2  0  0  0  0
 10 11  1  0  0  0  0
 11 13  1  0  0  0  0
 12 11  1  0  0  0  0
 12 14  2  0  0  0  0
 14 62  1  0  0  0  0
 15 12  1  0  0  0  0
 16 14  1  0  0  0  0
 16 63  1  0  0  0  0
 17 16  1  0  0  0  0
 17 64  1  0  0  0  0
 18 17  2  0  0  0  0
 18 15  1  0  0  0  0
 18 65  1  0  0  0  0
 19 20  1  0  0  0  0
 19 10  1  0  0  0  0
 20 66  1  0  0  0  0
 21 25  1  0  0  0  0
 21 20  2  0  0  0  0
 22 21  1  0  0  0  0
 22 67  1  0  0  0  0
 23 22  2  0  0  0  0
 23 24  1  0  0  0  0
 23 68  1  0  0  0  0
 24 19  2  0  0  0  0
 24 69  1  0  0  0  0
 25 26  2  0  0  0  0
 27 25  1  0  0  0  0
 28 27  1  0  0  0  0
 29 27  1  0  0  0  0
 29 35  2  0  0  0  0
 30 29  1  0  0  0  0
 31 30  1  0  0  0  0
 32 30  2  0  0  0  0
 32 33  1  0  0  0  0
 32 70  1  0  0  0  0
 33 34  2  0  0  0  0
 33 71  1  0  0  0  0
 34 35  1  0  0  0  0
 34 72  1  0  0  0  0
 35 36  1  0  0  0  0
 37 38  1  0  0  0  0
 39 40  1  0  0  0  0
 39 37  1  0  0  0  0
 40 45  1  0  0  0  0
 41 40  2  0  0  0  0
 41 73  1  0  0  0  0
 42 41  1  0  0  0  0
 43 42  2  0  0  0  0
 43 44  1  0  0  0  0
 43 74  1  0  0  0  0
 44 39  2  0  0  0  0
 44 75  1  0  0  0  0
 45 46  1  0  0  0  0
 46 76  1  0  0  0  0
 46 77  1  0  0  0  0
 46 78  1  0  0  0  0
 47 42  1  0  0  0  0
 48 47  1  0  0  0  0
 48 79  1  0  0  0  0
 48 80  1  0  0  0  0
 49 50  1  0  0  0  0
 49 48  1  0  0  0  0
 49 81  1  0  0  0  0
 49 82  1  0  0  0  0
 50 51  1  0  0  0  0
 50 83  1  6  0  0  0
 51 52  1  0  0  0  0
 51 84  1  0  0  0  0
 51 85  1  0  0  0  0
 52 47  1  0  0  0  0
 52 86  1  0  0  0  0
 52 87  1  0  0  0  0
 53 50  1  0  0  0  0
 53 59  1  0  0  0  0
 54 53  1  0  0  0  0
 54 88  1  0  0  0  0
 54 89  1  0  0  0  0
 55 54  1  0  0  0  0
 55 56  1  0  0  0  0
 55 90  1  0  0  0  0
 55 91  1  0  0  0  0
 56 57  1  0  0  0  0
 56 92  1  0  0  0  0
 56 93  1  0  0  0  0
 57 58  1  0  0  0  0
 57 94  1  0  0  0  0
 57 95  1  0  0  0  0
 58 96  1  0  0  0  0
 58 97  1  0  0  0  0
 59 58  1  0  0  0  0
 59 98  1  0  0  0  0
 59 99  1  0  0  0  0
M  END
>  <REMARK>
 VINA RESULT:      -8.4      3.552      5.468
  9 active torsions:
  status: ('A' for Active; 'I' for Inactive)
    1  A    between atoms: O_2  and  C_3 
    2  A    between atoms: C_4  and  N_5 
    3  A    between atoms: N_5  and  C_7 
    4  A    between atoms: C_10  and  C_11 
    5  A    between atoms: C_12  and  C_13 
    6  A    between atoms: C_15  and  C_16 
       I    between atoms: C_16  and  N_18 
    7  A    between atoms: N_18  and  C_20 
    8  A    between atoms: C_45  and  N_46 
    9  A    between atoms: C_49  and  N_50 

>  <TORSDO>
F 9

$$$$
resistance_project/docking/8faf60323ce63d5a/P00533_T790M/docked/molecule_0007_out.pdbqt
 OpenBabel09142609543D

 99106  0  0  1  0  0  0  0  0999 V2000
  -48.5570   -3.0280  -15.9130 C   0  0  1  0  0  0  0  0  0  0  0  0
  -47.9760   -1.8380  -15.6250 N   0  0  0  0  0  0  0  0  0  0  0  0
  -47.0400   -1.6410  -15.9800 H   0  0  0  0  0  0  0  0  0  0  0  0
  -48.6100   -0.9090  -14.8790 C   0  0  1  0  0  0  0  0  0  0  0  0
  -49.8750   -1.2320  -14.4270 C   0  0  0  0  0  0  0  0  0  0  0  0
  -50.4620   -2.4500  -14.7250 C   0  0  0  0  0  0  0  0  0  0  0  0
  -49.8010   -3.3360  -15.4640 N   0  0  0  0  0  0  0  0  0  0  0  0
  -50.2220   -4.2360  -15.6900 H   0  0  0  0  0  0  0  0  0  0  0  0
  -48.0210    0.3820  -14.5440 C   0  0  0  0  0  0  0  0  0  0  0  0
  -48.6130    1.5980  -14.8990 C   0  0  0  0  0  0  0  0  0  0  0  0
  -47.7940    2.5690  -14.4260 N   0  0  0  0  0  0  0  0  0  0  0  0
  -46.7390    1.9870  -13.8020 C   0  0  0  0  0  0  0  0  0  0  0  0
  -47.9470    3.5730  -14.5210 H   0  0  0  0  0  0  0  0  0  0  0  0
  -45.6180    2.4550  -13.1470 C   0  0  0  0  0  0  0  0  0  0  0  0
  -46.8810    0.6540  -13.8780 N   0  0  0  0  0  0  0  0  0  0  0  0
  -44.6780    1.6160  -12.5900 C   0  0  0  0  0  0  0  0  0  0  0  0
  -44.8650    0.2560  -12.6920 C   0  0  0  0  0  0  0  0  0  0  0  0
  -45.9880   -0.1960  -13.3470 C   0  0  0  0  0  0  0  0  0  0  0  0
  -49.8630    1.7340  -15.6370 C   0  0  0  0  0  0  0  0  0  0  0  0
  -50.0510    1.1520  -16.8490 C   0  0  0  0  0  0  0  0  0  0  0  0
  -51.2230    1.2860  -17.5310 C   0  0  0  0  0  0  0  0  0  0  0  0
  -52.2400    2.0310  -16.9710 C   0  0  0  0  0  0  0  0  0  0  0  0
  -52.0730    2.6350  -15.7340 C   0  0  0  0  0  0  0  0  0  0  0  0
  -50.8750    2.4820  -15.0680 C   0  0  0  0  0  0  0  0  0  0  0  0
  -51.4150    0.6500  -18.8550 C   0  0  0  0  0  0  0  0  0  0  0  0
  -51.4270   -0.6070  -18.9150 O   0  0  0  0  0  0  0  0  0  0  0  0
  -51.5800    1.4830  -19.9990 N   0  0  0  0  0  0  0  0  0  0  0  0
  -51.5290    2.4930  -19.8610 H   0  0  0  0  0  0  0  0  0  0  0  0
  -51.8070    1.0090  -21.3070 C   0  0  0  0  0  0  0  0  0  0  0  0
  -53.0220    1.3880  -21.8970 C   0  0  0  0  0  0  0  0  0  0  0  0
  -53.9030    2.1710  -21.2090 F   0  0  0  0  0  0  0  0  0  0  0  0
  -53.3140    0.9590  -23.1830 C   0  0  0  0  0  0  0  0  0  0  0  0
  -52.4300    0.1760  -23.8700 C   0  0  0  0  0  0  0  0  0  0  0  0
  -51.2400   -0.1910  -23.2810 C   0  0  0  0  0  0  0  0  0  0  0  0
  -50.9130    0.2140  -22.0050 C   0  0  0  0  0  0  0  0  0  0  0  0
  -49.7660   -0.1180  -21.3890 F   0  0  0  0  0  0  0  0  0  0  0  0
  -47.9150   -4.0260  -16.6970 N   0  0  0  0  0  0  0  0  0  0  0  0
  -47.6870   -4.9210  -16.2640 H   0  0  0  0  0  0  0  0  0  0  0  0
  -47.5780   -3.8220  -18.0640 C   0  0  0  0  0  0  0  0  0  0  0  0
  -46.2830   -3.5960  -18.4940 C   0  0  0  0  0  0  0  0  0  0  0  0
  -46.0670   -3.4160  -19.8350 C   0  0  0  0  0  0  0  0  0  0  0  0
  -47.1060   -3.4590  -20.7330 C   0  0  0  0  0  0  0  0  0  0  0  0
  -48.4060   -3.6830  -20.3340 C   0  0  0  0  0  0  0  0  0  0  0  0
  -48.6170   -3.8640  -18.9840 C   0  0  0  0  0  0  0  0  0  0  0  0
  -45.2960   -3.5670  -17.5290 O   0  0  0  0  0  0  0  0  0  0  0  0
  -43.9690   -3.3320  -17.9610 C   0  0  0  0  0  0  0  0  0  0  0  0
  -46.8300   -3.2690  -22.1210 N   0  0  0  0  0  0  0  0  0  0  0  0
  -47.3320   -2.1360  -22.8750 C   0  0  0  0  0  0  0  0  0  0  0  0
  -47.1340   -2.4200  -24.3420 C   0  0  0  0  0  0  0  0  0  0  0  0
  -47.6250   -3.7960  -24.6450 C   0  0  1  0  0  0  0  0  0  0  0  0
  -46.9040   -4.8790  -23.8770 C   0  0  0  0  0  0  0  0  0  0  0  0
  -46.0130   -4.2240  -22.8460 C   0  0  0  0  0  0  0  0  0  0  0  0
  -49.0520   -3.9480  -24.5350 N   0  0  0  0  0  0  0  0  0  0  0  0
  -49.6620   -3.4960  -25.7630 C   0  0  0  0  0  0  0  0  0  0  0  0
  -51.1630   -3.5090  -25.5740 C   0  0  0  0  0  0  0  0  0  0  0  0
  -51.4370   -3.3510  -24.0920 C   0  0  0  0  0  0  0  0  0  0  0  0
  -51.6760   -4.7140  -23.4900 C   0  0  0  0  0  0  0  0  0  0  0  0
  -50.4230   -5.4920  -23.2530 C   0  0  0  0  0  0  0  0  0  0  0  0
  -49.3810   -5.3280  -24.3410 C   0  0  0  0  0  0  0  0  0  0  0  0
  -50.3947   -0.5492  -13.8537 H   0  0  0  0  0  0  0  0  0  0  0  0
  -51.4079   -2.6691  -14.3753 H   0  0  0  0  0  0  0  0  0  0  0  0
  -45.4783    3.4747  -13.0714 H   0  0  0  0  0  0  0  0  0  0  0  0
  -44.6253    1.8497  -11.5472 H   0  0  0  0  0  0  0  0  0  0  0  0
  -44.1830   -0.4055  -12.2891 H   0  0  0  0  0  0  0  0  0  0  0  0
  -46.1472   -1.2121  -13.4319 H   0  0  0  0  0  0  0  0  0  0  0  0
  -49.2879    0.5947  -17.2638 H   0  0  0  0  0  0  0  0  0  0  0  0
  -53.1328    2.1398  -17.4770 H   0  0  0  0  0  0  0  0  0  0  0  0
  -52.8353    3.1918  -15.3171 H   0  0  0  0  0  0  0  0  0  0  0  0
  -50.7351    2.9254  -14.1467 H   0  0  0  0  0  0  0  0  0  0  0  0
  -54.2057    1.2332  -23.6243 H   0  0  0  0  0  0  0  0  0  0  0  0
  -52.6530   -0.1395  -24.8270 H   0  0  0  0  0  0  0  0  0  0  0  0
  -50.5783   -0.7827  -23.8073 H   0  0  0  0  0  0  0  0  0  0  0  0
  -45.1081   -3.2453  -20.1762 H   0  0  0  0  0  0  0  0  0  0  0  0
  -49.1830   -3.7137  -21.0125 H   0  0  0  0  0  0  0  0  0  0  0  0
  -49.5770   -4.0361  -18.6466 H   0  0  0  0  0  0  0  0  0  0  0  0
  -43.3128   -3.3358  -17.1158 H   0  0  0  0  0  0  0  0  0  0  0  0
  -43.9160   -2.3815  -18.4494 H   0  0  0  0  0  0  0  0  0  0  0  0
  -43.6749   -4.1011  -18.6443 H   0  0  0  0  0  0  0  0  0  0  0  0
  -48.3731   -1.9976  -22.6704 H   0  0  0  0  0  0  0  0  0  0  0  0
  -46.8070   -1.2460  -22.5972 H   0  0  0  0  0  0  0  0  0  0  0  0
  -47.6834   -1.7080  -24.9219 H   0  0  0  0  0  0  0  0  0  0  0  0
  -46.0947   -2.3470  -24.5856 H   0  0  0  0  0  0  0  0  0  0  0  0
  -47.3820   -3.9269  -25.6788 H   0  0  0  0  0  0  0  0  0  0  0  0
  -46.3100   -5.4632  -24.5484 H   0  0  0  0  0  0  0  0  0  0  0  0
  -47.6122   -5.5202  -23.3952 H   0  0  0  0  0  0  0  0  0  0  0  0
  -45.2015   -3.7208  -23.3288 H   0  0  0  0  0  0  0  0  0  0  0  0
  -45.5996   -4.9535  -22.1813 H   0  0  0  0  0  0  0  0  0  0  0  0
  -49.3332   -2.5028  -25.9873 H   0  0  0  0  0  0  0  0  0  0  0  0
  -49.3845   -4.1376  -26.5731 H   0  0  0  0  0  0  0  0  0  0  0  0
  -51.5672   -4.4361  -25.9234 H   0  0  0  0  0  0  0  0  0  0  0  0
  -51.6195   -2.7157  -26.1283 H   0  0  0  0  0  0  0  0  0  0  0  0
  -52.3032   -2.7391  -23.9503 H   0  0  0  0  0  0  0  0  0  0  0  0
  -50.5984   -2.8870  -23.6162 H   0  0  0  0  0  0  0  0  0  0  0  0
  -52.3002   -5.2729  -24.1555 H   0  0  0  0  0  0  0  0  0  0  0  0
  -52.1341   -4.5591  -22.5355 H   0  0  0  0  0  0  0  0  0  0  0  0
  -49.9961   -5.1685  -22.3267 H   0  0  0  0  0  0  0  0  0  0  0  0
  -50.6980   -6.5260  -23.2409 H   0  0  0  0  0  0  0  0  0  0  0  0
  -48.4970   -5.8622  -24.0618 H   0  0  0  0  0  0  0  0  0  0  0  0
  -49.7804   -5.7143  -25.2554 H   0  0  0  0  0  0  0  0  0  0  0  0
  1 37  1  6  0  0  0
  1  2  1  0  0  0  0
  1  7  1  0  0  0  0
  2  4  1  0  0  0  0
  3  2  1  0  0  0  0
  4  9  1  1  0  0  0
  4  5  1  0  0  0  0
  5 60  1  0  0  0  0
  6  5  2  0  0  0  0
  6 61  1  0  0  0  0
  7  6  1  0  0  0  0
  8  7  1  0  0  0  0
  9 15  1  0  0  0  0
 10  9  2  0  0  0  0
 10 11  1  0  0  0  0
 11 12  1  0  0  0  0
 12 14  2  0  0  0  0
 13 11  1  0  0  0  0
 14 16  1  0  0  0  0
 14 62  1  0  0  0  0
 15 12  1  0  0  0  0
 15 18  1  0  0  0  0
 16 63  1  0  0  0  0
 17 16  1  0  0  0  0
 17 64  1  0  0  0  0
 18 17  2  0  0  0  0
 18 65  1  0  0  0  0
 19 24  1  0  0  0  0
 19 10  1  0  0  0  0
 20 19  2  0  0  0  0
 20 66  1  0  0  0  0
 21 22  2  0  0  0  0
 21 20  1  0  0  0  0
 22 23  1  0  0  0  0
 22 67  1  0  0  0  0
 23 24  2  0  0  0  0
 23 68  1  0  0  0  0
 24 69  1  0  0  0  0
 25 21  1  0  0  0  0
 26 25  2  0  0  0  0
 27 28  1  0  0  0  0
 27 25  1  0  0  0  0
 29 27  1  0  0  0  0
 30 29  1  0  0  0  0
 30 31  1  0  0  0  0
 32 30  2  0  0  0  0
 32 70  1  0  0  0  0
 33 34  2  0  0  0  0
 33 32  1  0  0  0  0
 33 71  1  0  0  0  0
 34 35  1  0  0  0  0
 34 72  1  0  0  0  0
 35 36  1  0  0  0  0
 35 29  2  0  0  0  0
 37 38  1  0  0  0  0
 39 37  1  0  0  0  0
 40 39  1  0  0  0  0
 40 45  1  0  0  0  0
 41 40  2  0  0  0  0
 41 73  1  0  0  0  0
 42 43  2  0  0  0  0
 42 41  1  0  0  0  0
 43 44  1  0  0  0  0
 43 74  1  0  0  0  0
 44 39  2  0  0  0  0
 44 75  1  0  0  0  0
 46 45  1  0  0  0  0
 46 76  1  0  0  0  0
 46 77  1  0  0  0  0
 46 78  1  0  0  0  0
 47 42  1  0  0  0  0
 48 47  1  0  0  0  0
 48 79  1  0  0  0  0
 48 80  1  0  0  0  0
 49 48  1  0  0  0  0
 49 81  1  0  0  0  0
 49 82  1  0  0  0  0
 50 53  1  0  0  0  0
 50 49  1  0  0  0  0
 50 51  1  0  0  0  0
 50 83  1  6  0  0  0
 51 52  1  0  0  0  0
 51 84  1  0  0  0  0
 51 85  1  0  0  0  0
 52 47  1  0  0  0  0
 52 86  1  0  0  0  0
 52 87  1  0  0  0  0
 53 59  1  0  0  0  0
 54 55  1  0  0  0  0
 54 53  1  0  0  0  0
 54 88  1  0  0  0  0
 54 89  1  0  0  0  0
 55 56  1  0  0  0  0
 55 90  1  0  0  0  0
 55 91  1  0  0  0  0
 56 57  1  0  0  0  0
 56 92  1  0  0  0  0
 56 93  1  0  0  0  0
 57 58  1  0  0  0  0
 57 94  1  0  0  0  0
 57 95  1  0  0  0  0
 58 96  1  0  0  0  0
 58 97  1  0  0  0  0
 59 58  1  0  0  0  0
 59 98  1  0  0  0  0
 59 99  1  0  0  0  0
M  END
>  <REMARK>
 VINA RESULT:      -8.2      2.121      3.877
  9 active torsions:
  status: ('A' for Active; 'I' for Inactive)
    1  A    between atoms: O_2  and  C_3 
    2  A    between atoms: C_4  and  N_5 
    3  A    between atoms: N_5  and  C_7 
    4  A    between atoms: C_10  and  C_11 
    5  A    between atoms: C_12  and  C_13 
    6  A    between atoms: C_15  and  C_16 
       I    between atoms: C_16  and  N_18 
    7  A    between atoms: N_18  and  C_20 
    8  A    between atoms: C_45  and  N_46 
    9  A    between atoms: C_49  and  N_50 

>  <TORSDO>
F 9

$$$$
resistance_project/docking/8faf60323ce63d5a/P00533_T790M/docked/molecule_0007_out.pdbqt
 OpenBabel09142609543D

 99106  0  0  1  0  0  0  0  0999 V2000
  -51.4830   -1.5820  -22.0020 C   0  0  1  0  0  0  0  0  0  0  0  0
  -50.8810   -1.4510  -20.7950 N   0  0  0  0  0  0  0  0  0  0  0  0
  -50.5090   -2.2780  -20.3300 H   0  0  0  0  0  0  0  0  0  0  0  0
  -50.7660   -0.2460  -20.1960 C   0  0  1  0  0  0  0  0  0  0  0  0
  -51.2890    0.8380  -20.8730 C   0  0  0  0  0  0  0  0  0  0  0  0
  -51.9030    0.6950  -22.1060 C   0  0  0  0  0  0  0  0  0  0  0  0
  -51.9940   -0.5100  -22.6600 N   0  0  0  0  0  0  0  0  0  0  0  0
  -52.4440   -0.6280  -23.5680 H   0  0  0  0  0  0  0  0  0  0  0  0
  -50.1280   -0.0600  -18.8980 C   0  0  0  0  0  0  0  0  0  0  0  0
  -48.8890   -0.6210  -18.5760 C   0  0  0  0  0  0  0  0  0  0  0  0
  -48.6180   -0.2370  -17.3060 N   0  0  0  0  0  0  0  0  0  0  0  0
  -49.6420    0.5300  -16.8520 C   0  0  0  0  0  0  0  0  0  0  0  0
  -47.7810   -0.4830  -16.7760 H   0  0  0  0  0  0  0  0  0  0  0  0
  -49.9160    1.1840  -15.6680 C   0  0  0  0  0  0  0  0  0  0  0  0
  -50.5600    0.6340  -17.8260 N   0  0  0  0  0  0  0  0  0  0  0  0
  -51.0680    1.9140  -15.4720 C   0  0  0  0  0  0  0  0  0  0  0  0
  -51.9810    1.9940  -16.4980 C   0  0  0  0  0  0  0  0  0  0  0  0
  -51.6940    1.3370  -17.6730 C   0  0  0  0  0  0  0  0  0  0  0  0
  -48.0910   -1.4500  -19.4720 C   0  0  0  0  0  0  0  0  0  0  0  0
  -47.8240   -2.7540  -19.1990 C   0  0  0  0  0  0  0  0  0  0  0  0
  -47.0770   -3.5210  -20.0410 C   0  0  0  0  0  0  0  0  0  0  0  0
  -46.5830   -2.9540  -21.1980 C   0  0  0  0  0  0  0  0  0  0  0  0
  -46.8400   -1.6260  -21.4990 C   0  0  0  0  0  0  0  0  0  0  0  0
  -47.5990   -0.8740  -20.6260 C   0  0  0  0  0  0  0  0  0  0  0  0
  -46.7900   -4.9400  -19.7320 C   0  0  0  0  0  0  0  0  0  0  0  0
  -45.7180   -5.4380  -20.1650 O   0  0  0  0  0  0  0  0  0  0  0  0
  -47.7330   -5.6800  -18.9620 N   0  0  0  0  0  0  0  0  0  0  0  0
  -48.5890   -5.2040  -18.6760 H   0  0  0  0  0  0  0  0  0  0  0  0
  -47.5650   -7.0230  -18.5680 C   0  0  0  0  0  0  0  0  0  0  0  0
  -48.3630   -7.9640  -19.2340 C   0  0  0  0  0  0  0  0  0  0  0  0
  -49.2380   -7.5610  -20.2000 F   0  0  0  0  0  0  0  0  0  0  0  0
  -48.2510   -9.3060  -18.8990 C   0  0  0  0  0  0  0  0  0  0  0  0
  -47.3750   -9.7080  -17.9320 C   0  0  0  0  0  0  0  0  0  0  0  0
  -46.5960   -8.7750  -17.2830 C   0  0  0  0  0  0  0  0  0  0  0  0
  -46.6770   -7.4330  -17.5870 C   0  0  0  0  0  0  0  0  0  0  0  0
  -45.9400   -6.4870  -16.9830 F   0  0  0  0  0  0  0  0  0  0  0  0
  -51.6190   -2.8360  -22.6590 N   0  0  0  0  0  0  0  0  0  0  0  0
  -52.5560   -3.2000  -22.8350 H   0  0  0  0  0  0  0  0  0  0  0  0
  -50.4970   -3.6020  -23.0800 C   0  0  0  0  0  0  0  0  0  0  0  0
  -49.7670   -3.3040  -24.2170 C   0  0  0  0  0  0  0  0  0  0  0  0
  -48.7010   -4.1050  -24.5310 C   0  0  0  0  0  0  0  0  0  0  0  0
  -48.3600   -5.1760  -23.7400 C   0  0  0  0  0  0  0  0  0  0  0  0
  -49.0690   -5.4960  -22.6020 C   0  0  0  0  0  0  0  0  0  0  0  0
  -50.1400   -4.6870  -22.2910 C   0  0  0  0  0  0  0  0  0  0  0  0
  -50.1740   -2.2130  -24.9570 O   0  0  0  0  0  0  0  0  0  0  0  0
  -50.9550   -2.4620  -26.1120 C   0  0  0  0  0  0  0  0  0  0  0  0
  -47.2380   -5.9790  -24.1070 N   0  0  0  0  0  0  0  0  0  0  0  0
  -45.8810   -5.6670  -23.7010 C   0  0  0  0  0  0  0  0  0  0  0  0
  -44.9380   -6.5110  -24.5200 C   0  0  0  0  0  0  0  0  0  0  0  0
  -45.3250   -6.4230  -25.9580 C   0  0  1  0  0  0  0  0  0  0  0  0
  -46.7250   -6.9160  -26.2380 C   0  0  0  0  0  0  0  0  0  0  0  0
  -47.4190   -7.1680  -24.9190 C   0  0  0  0  0  0  0  0  0  0  0  0
  -45.1060   -5.1290  -26.5480 N   0  0  0  0  0  0  0  0  0  0  0  0
  -43.7700   -5.0900  -27.0960 C   0  0  0  0  0  0  0  0  0  0  0  0
  -43.4960   -3.6780  -27.5660 C   0  0  0  0  0  0  0  0  0  0  0  0
  -44.3740   -2.7490  -26.7520 C   0  0  0  0  0  0  0  0  0  0  0  0
  -45.6150   -2.4260  -27.5470 C   0  0  0  0  0  0  0  0  0  0  0  0
  -46.6340   -3.5180  -27.5380 C   0  0  0  0  0  0  0  0  0  0  0  0
  -46.0420   -4.9120  -27.6090 C   0  0  0  0  0  0  0  0  0  0  0  0
  -51.2207    1.7769  -20.4501 H   0  0  0  0  0  0  0  0  0  0  0  0
  -52.2880    1.5198  -22.5924 H   0  0  0  0  0  0  0  0  0  0  0  0
  -49.2307    1.1239  -14.8987 H   0  0  0  0  0  0  0  0  0  0  0  0
  -51.5741    1.4848  -14.6326 H   0  0  0  0  0  0  0  0  0  0  0  0
  -52.8556    2.5310  -16.3898 H   0  0  0  0  0  0  0  0  0  0  0  0
  -52.3660    1.3858  -18.4547 H   0  0  0  0  0  0  0  0  0  0  0  0
  -48.1962   -3.1735  -18.3327 H   0  0  0  0  0  0  0  0  0  0  0  0
  -46.0167   -3.5244  -21.8453 H   0  0  0  0  0  0  0  0  0  0  0  0
  -46.4685   -1.2049  -22.3649 H   0  0  0  0  0  0  0  0  0  0  0  0
  -47.7984    0.1167  -20.8353 H   0  0  0  0  0  0  0  0  0  0  0  0
  -48.8342  -10.0054  -19.3845 H   0  0  0  0  0  0  0  0  0  0  0  0
  -47.2965  -10.7076  -17.6879 H   0  0  0  0  0  0  0  0  0  0  0  0
  -45.9371   -9.0880  -16.5529 H   0  0  0  0  0  0  0  0  0  0  0  0
  -48.1445   -3.9008  -25.3758 H   0  0  0  0  0  0  0  0  0  0  0  0
  -48.8102   -6.3021  -22.0118 H   0  0  0  0  0  0  0  0  0  0  0  0
  -50.6940   -4.8940  -21.4453 H   0  0  0  0  0  0  0  0  0  0  0  0
  -51.1980   -1.5336  -26.5852 H   0  0  0  0  0  0  0  0  0  0  0  0
  -51.8562   -2.9659  -25.8313 H   0  0  0  0  0  0  0  0  0  0  0  0
  -50.4008   -3.0746  -26.7921 H   0  0  0  0  0  0  0  0  0  0  0  0
  -45.6810   -4.6300  -23.8728 H   0  0  0  0  0  0  0  0  0  0  0  0
  -45.7506   -5.8726  -22.6591 H   0  0  0  0  0  0  0  0  0  0  0  0
  -43.9374   -6.1527  -24.3960 H   0  0  0  0  0  0  0  0  0  0  0  0
  -44.9915   -7.5290  -24.1947 H   0  0  0  0  0  0  0  0  0  0  0  0
  -44.6491   -7.0971  -26.4414 H   0  0  0  0  0  0  0  0  0  0  0  0
  -46.6815   -7.8242  -26.8020 H   0  0  0  0  0  0  0  0  0  0  0  0
  -47.2649   -6.1842  -26.8018 H   0  0  0  0  0  0  0  0  0  0  0  0
  -46.9837   -8.0151  -24.4313 H   0  0  0  0  0  0  0  0  0  0  0  0
  -48.4586   -7.3720  -25.0688 H   0  0  0  0  0  0  0  0  0  0  0  0
  -43.0611   -5.3658  -26.3435 H   0  0  0  0  0  0  0  0  0  0  0  0
  -43.6841   -5.7759  -27.9127 H   0  0  0  0  0  0  0  0  0  0  0  0
  -43.7324   -3.5866  -28.6056 H   0  0  0  0  0  0  0  0  0  0  0  0
  -42.4631   -3.4310  -27.4357 H   0  0  0  0  0  0  0  0  0  0  0  0
  -43.8402   -1.8468  -26.5375 H   0  0  0  0  0  0  0  0  0  0  0  0
  -44.6465   -3.2223  -25.8319 H   0  0  0  0  0  0  0  0  0  0  0  0
  -46.0604   -1.5447  -27.1350 H   0  0  0  0  0  0  0  0  0  0  0  0
  -45.3094   -2.2914  -28.5635 H   0  0  0  0  0  0  0  0  0  0  0  0
  -47.2037   -3.4396  -26.6357 H   0  0  0  0  0  0  0  0  0  0  0  0
  -47.2335   -3.3903  -28.4151 H   0  0  0  0  0  0  0  0  0  0  0  0
  -45.5410   -5.0316  -28.5469 H   0  0  0  0  0  0  0  0  0  0  0  0
  -46.8354   -5.6235  -27.5131 H   0  0  0  0  0  0  0  0  0  0  0  0
  1 37  1  6  0  0  0
  1  2  1  0  0  0  0
  2  3  1  0  0  0  0
  2  4  1  0  0  0  0
  4  9  1  1  0  0  0
  5  4  1  0  0  0  0
  5 60  1  0  0  0  0
  6  5  2  0  0  0  0
  6 61  1  0  0  0  0
  7  6  1  0  0  0  0
  7  1  1  0  0  0  0
  8  7  1  0  0  0  0
  9 10  2  0  0  0  0
  9 15  1  0  0  0  0
 10 11  1  0  0  0  0
 11 12  1  0  0  0  0
 11 13  1  0  0  0  0
 12 14  2  0  0  0  0
 14 16  1  0  0  0  0
 14 62  1  0  0  0  0
 15 18  1  0  0  0  0
 15 12  1  0  0  0  0
 16 63  1  0  0  0  0
 17 16  1  0  0  0  0
 17 64  1  0  0  0  0
 18 17  2  0  0  0  0
 18 65  1  0  0  0  0
 19 20  1  0  0  0  0
 19 10  1  0  0  0  0
 20 66  1  0  0  0  0
 21 25  1  0  0  0  0
 21 20  2  0  0  0  0
 22 21  1  0  0  0  0
 22 67  1  0  0  0  0
 23 22  2  0  0  0  0
 23 24  1  0  0  0  0
 23 68  1  0  0  0  0
 24 19  2  0  0  0  0
 24 69  1  0  0  0  0
 25 27  1  0  0  0  0
 26 25  2  0  0  0  0
 27 28  1  0  0  0  0
 27 29  1  0  0  0  0
 29 35  2  0  0  0  0
 30 32  2  0  0  0  0
 30 29  1  0  0  0  0
 31 30  1  0  0  0  0
 32 33  1  0  0  0  0
 32 70  1  0  0  0  0
 33 34  2  0  0  0  0
 33 71  1  0  0  0  0
 34 72  1  0  0  0  0
 35 34  1  0  0  0  0
 35 36  1  0  0  0  0
 38 37  1  0  0  0  0
 39 37  1  0  0  0  0
 39 44  2  0  0  0  0
 40 39  1  0  0  0  0
 41 40  2  0  0  0  0
 41 42  1  0  0  0  0
 41 73  1  0  0  0  0
 42 43  2  0  0  0  0
 43 44  1  0  0  0  0
 43 74  1  0  0  0  0
 44 75  1  0  0  0  0
 45 40  1  0  0  0  0
 46 45  1  0  0  0  0
 46 76  1  0  0  0  0
 46 77  1  0  0  0  0
 46 78  1  0  0  0  0
 47 42  1  0  0  0  0
 47 48  1  0  0  0  0
 48 79  1  0  0  0  0
 48 80  1  0  0  0  0
 49 48  1  0  0  0  0
 49 81  1  0  0  0  0
 49 82  1  0  0  0  0
 50 49  1  0  0  0  0
 50 83  1  6  0  0  0
 51 50  1  0  0  0  0
 51 52  1  0  0  0  0
 51 84  1  0  0  0  0
 51 85  1  0  0  0  0
 52 47  1  0  0  0  0
 52 86  1  0  0  0  0
 52 87  1  0  0  0  0
 53 50  1  0  0  0  0
 54 53  1  0  0  0  0
 54 88  1  0  0  0  0
 54 89  1  0  0  0  0
 55 54  1  0  0  0  0
 55 56  1  0  0  0  0
 55 90  1  0  0  0  0
 55 91  1  0  0  0  0
 56 92  1  0  0  0  0
 56 93  1  0  0  0  0
 57 58  1  0  0  0  0
 57 56  1  0  0  0  0
 57 94  1  0  0  0  0
 57 95  1  0  0  0  0
 58 96  1  0  0  0  0
 58 97  1  0  0  0  0
 59 58  1  0  0  0  0
 59 53  1  0  0  0  0
 59 98  1  0  0  0  0
 59 99  1  0  0  0  0
M  END
>  <REMARK>
 VINA RESULT:      -8.1      3.751      7.688
  9 active torsions:
  status: ('A' for Active; 'I' for Inactive)
    1  A    between atoms: O_2  and  C_3 
    2  A    between atoms: C_4  and  N_5 
    3  A    between atoms: N_5  and  C_7 
    4  A    between atoms: C_10  and  C_11 
    5  A    between atoms: C_12  and  C_13 
    6  A    between atoms: C_15  and  C_16 
       I    between atoms: C_16  and  N_18 
    7  A    between atoms: N_18  and  C_20 
    8  A    between atoms: C_45  and  N_46 
    9  A    between atoms: C_49  and  N_50 

>  <TORSDO>
F 9

$$$$
resistance_project/docking/8faf60323ce63d5a/P00533_T790M/docked/molecule_0007_out.pdbqt
 OpenBabel09142609543D

 99106  0  0  1  0  0  0  0  0999 V2000
  -51.6770   -0.8900  -21.6900 C   0  0  1  0  0  0  0  0  0  0  0  0
  -51.0920   -0.8010  -20.4710 N   0  0  0  0  0  0  0  0  0  0  0  0
  -50.6630   -1.6310  -20.0610 H   0  0  0  0  0  0  0  0  0  0  0  0
  -51.0660    0.3620  -19.7870 C   0  0  2  0  0  0  0  0  0  0  0  0
  -51.6610    1.4520  -20.3910 C   0  0  0  0  0  0  0  0  0  0  0  0
  -52.2570    1.3540  -21.6380 C   0  0  0  0  0  0  0  0  0  0  0  0
  -52.2600    0.1880  -22.2750 N   0  0  0  0  0  0  0  0  0  0  0  0
  -52.6950    0.1030  -23.1940 H   0  0  0  0  0  0  0  0  0  0  0  0
  -50.4490    0.5010  -18.4730 C   0  0  0  0  0  0  0  0  0  0  0  0
  -49.2480   -0.1270  -18.1310 C   0  0  0  0  0  0  0  0  0  0  0  0
  -48.9880    0.2290  -16.8490 N   0  0  0  0  0  0  0  0  0  0  0  0
  -49.9800    1.0420  -16.4090 C   0  0  0  0  0  0  0  0  0  0  0  0
  -48.1770   -0.0670  -16.3050 H   0  0  0  0  0  0  0  0  0  0  0  0
  -50.2480    1.6970  -15.2240 C   0  0  0  0  0  0  0  0  0  0  0  0
  -50.8690    1.2050  -17.4020 N   0  0  0  0  0  0  0  0  0  0  0  0
  -51.3650    2.4830  -15.0450 C   0  0  0  0  0  0  0  0  0  0  0  0
  -52.2480    2.6210  -16.0900 C   0  0  0  0  0  0  0  0  0  0  0  0
  -51.9690    1.9640  -17.2660 C   0  0  0  0  0  0  0  0  0  0  0  0
  -48.4730   -0.9870  -19.0180 C   0  0  0  0  0  0  0  0  0  0  0  0
  -48.3350   -2.3180  -18.7900 C   0  0  0  0  0  0  0  0  0  0  0  0
  -47.6090   -3.1140  -19.6240 C   0  0  0  0  0  0  0  0  0  0  0  0
  -47.0020   -2.5460  -20.7260 C   0  0  0  0  0  0  0  0  0  0  0  0
  -47.1280   -1.1890  -20.9810 C   0  0  0  0  0  0  0  0  0  0  0  0
  -47.8690   -0.4100  -20.1170 C   0  0  0  0  0  0  0  0  0  0  0  0
  -47.4610   -4.5640  -19.3640 C   0  0  0  0  0  0  0  0  0  0  0  0
  -47.7890   -5.0020  -18.2310 O   0  0  0  0  0  0  0  0  0  0  0  0
  -46.9560   -5.3990  -20.4020 N   0  0  0  0  0  0  0  0  0  0  0  0
  -46.6890   -4.9550  -21.2800 H   0  0  0  0  0  0  0  0  0  0  0  0
  -46.8010   -6.7960  -20.2990 C   0  0  0  0  0  0  0  0  0  0  0  0
  -47.9450   -7.5640  -20.5660 C   0  0  0  0  0  0  0  0  0  0  0  0
  -49.1170   -6.9530  -20.9020 F   0  0  0  0  0  0  0  0  0  0  0  0
  -47.8670   -8.9470  -20.4850 C   0  0  0  0  0  0  0  0  0  0  0  0
  -46.6920   -9.5560  -20.1490 C   0  0  0  0  0  0  0  0  0  0  0  0
  -45.5750   -8.7930  -19.8870 C   0  0  0  0  0  0  0  0  0  0  0  0
  -45.6110   -7.4170  -19.9580 C   0  0  0  0  0  0  0  0  0  0  0  0
  -44.5500   -6.6310  -19.7120 F   0  0  0  0  0  0  0  0  0  0  0  0
  -51.7200   -2.1010  -22.4350 N   0  0  0  0  0  0  0  0  0  0  0  0
  -52.4460   -2.7850  -22.2200 H   0  0  0  0  0  0  0  0  0  0  0  0
  -50.7880   -2.3930  -23.4690 C   0  0  0  0  0  0  0  0  0  0  0  0
  -51.0250   -2.0990  -24.8000 C   0  0  0  0  0  0  0  0  0  0  0  0
  -50.0580   -2.4200  -25.7160 C   0  0  0  0  0  0  0  0  0  0  0  0
  -48.8820   -3.0160  -25.3290 C   0  0  0  0  0  0  0  0  0  0  0  0
  -48.6190   -3.3190  -24.0100 C   0  0  0  0  0  0  0  0  0  0  0  0
  -49.5950   -2.9950  -23.0930 C   0  0  0  0  0  0  0  0  0  0  0  0
  -52.2300   -1.5010  -25.1070 O   0  0  0  0  0  0  0  0  0  0  0  0
  -52.1890   -0.2890  -25.8370 C   0  0  0  0  0  0  0  0  0  0  0  0
  -47.9030   -3.3270  -26.3210 N   0  0  0  0  0  0  0  0  0  0  0  0
  -48.1470   -4.2700  -27.3960 C   0  0  0  0  0  0  0  0  0  0  0  0
  -46.8240   -4.5990  -28.0420 C   0  0  0  0  0  0  0  0  0  0  0  0
  -45.8260   -4.9180  -26.9800 C   0  0  1  0  0  0  0  0  0  0  0  0
  -45.5830   -3.7800  -26.0170 C   0  0  0  0  0  0  0  0  0  0  0  0
  -46.5980   -2.6940  -26.2910 C   0  0  0  0  0  0  0  0  0  0  0  0
  -46.0900   -6.1440  -26.2750 N   0  0  0  0  0  0  0  0  0  0  0  0
  -45.3040   -7.2000  -26.8700 C   0  0  0  0  0  0  0  0  0  0  0  0
  -45.7110   -8.5070  -26.2280 C   0  0  0  0  0  0  0  0  0  0  0  0
  -47.1340   -8.3480  -25.7320 C   0  0  0  0  0  0  0  0  0  0  0  0
  -47.1050   -8.0090  -24.2610 C   0  0  0  0  0  0  0  0  0  0  0  0
  -46.7670   -6.5810  -23.9820 C   0  0  0  0  0  0  0  0  0  0  0  0
  -45.7080   -6.0080  -24.9020 C   0  0  0  0  0  0  0  0  0  0  0  0
  -51.6618    2.3609  -19.9021 H   0  0  0  0  0  0  0  0  0  0  0  0
  -52.6962    2.1821  -22.0697 H   0  0  0  0  0  0  0  0  0  0  0  0
  -49.5846    1.5937  -14.4403 H   0  0  0  0  0  0  0  0  0  0  0  0
  -51.9118    2.0712  -14.2226 H   0  0  0  0  0  0  0  0  0  0  0  0
  -53.0962    3.2011  -15.9948 H   0  0  0  0  0  0  0  0  0  0  0  0
  -52.6195    2.0563  -18.0618 H   0  0  0  0  0  0  0  0  0  0  0  0
  -48.7912   -2.7373  -17.9647 H   0  0  0  0  0  0  0  0  0  0  0  0
  -46.4491   -3.1371  -21.3662 H   0  0  0  0  0  0  0  0  0  0  0  0
  -46.6735   -0.7675  -21.8061 H   0  0  0  0  0  0  0  0  0  0  0  0
  -47.9716    0.6019  -20.2918 H   0  0  0  0  0  0  0  0  0  0  0  0
  -48.7032   -9.5195  -20.6801 H   0  0  0  0  0  0  0  0  0  0  0  0
  -46.6407  -10.5851  -20.0914 H   0  0  0  0  0  0  0  0  0  0  0  0
  -44.6919   -9.2622  -19.6320 H   0  0  0  0  0  0  0  0  0  0  0  0
  -50.2157   -2.2105  -26.7141 H   0  0  0  0  0  0  0  0  0  0  0  0
  -47.7344   -3.7666  -23.7235 H   0  0  0  0  0  0  0  0  0  0  0  0
  -49.4341   -3.2064  -22.0958 H   0  0  0  0  0  0  0  0  0  0  0  0
  -53.1864    0.0608  -26.0039 H   0  0  0  0  0  0  0  0  0  0  0  0
  -51.7073   -0.4554  -26.7778 H   0  0  0  0  0  0  0  0  0  0  0  0
  -51.6423    0.4439  -25.2811 H   0  0  0  0  0  0  0  0  0  0  0  0
  -48.5899   -5.1611  -27.0028 H   0  0  0  0  0  0  0  0  0  0  0  0
  -48.8151   -3.8457  -28.1160 H   0  0  0  0  0  0  0  0  0  0  0  0
  -46.4848   -3.7589  -28.6112 H   0  0  0  0  0  0  0  0  0  0  0  0
  -46.9403   -5.4416  -28.6911 H   0  0  0  0  0  0  0  0  0  0  0  0
  -44.9181   -5.0691  -27.5257 H   0  0  0  0  0  0  0  0  0  0  0  0
  -44.5949   -3.3939  -26.1566 H   0  0  0  0  0  0  0  0  0  0  0  0
  -45.6797   -4.1260  -25.0091 H   0  0  0  0  0  0  0  0  0  0  0  0
  -46.5653   -1.9571  -25.5159 H   0  0  0  0  0  0  0  0  0  0  0  0
  -46.3908   -2.2048  -27.2198 H   0  0  0  0  0  0  0  0  0  0  0  0
  -44.2637   -7.0194  -26.6969 H   0  0  0  0  0  0  0  0  0  0  0  0
  -45.4722   -7.2374  -27.9260 H   0  0  0  0  0  0  0  0  0  0  0  0
  -45.0609   -8.7289  -25.4076 H   0  0  0  0  0  0  0  0  0  0  0  0
  -45.6453   -9.3093  -26.9329 H   0  0  0  0  0  0  0  0  0  0  0  0
  -47.6698   -9.2624  -25.8792 H   0  0  0  0  0  0  0  0  0  0  0  0
  -47.6214   -7.5651  -26.2746 H   0  0  0  0  0  0  0  0  0  0  0  0
  -46.3736   -8.6287  -23.7856 H   0  0  0  0  0  0  0  0  0  0  0  0
  -48.0910   -8.1777  -23.8811 H   0  0  0  0  0  0  0  0  0  0  0  0
  -47.6574   -5.9973  -24.0889 H   0  0  0  0  0  0  0  0  0  0  0  0
  -46.3679   -6.5451  -22.9899 H   0  0  0  0  0  0  0  0  0  0  0  0
  -45.5743   -4.9704  -24.6775 H   0  0  0  0  0  0  0  0  0  0  0  0
  -44.7963   -6.5465  -24.7479 H   0  0  0  0  0  0  0  0  0  0  0  0
  1 37  1  6  0  0  0
  1  2  1  0  0  0  0
  2  3  1  0  0  0  0
  2  4  1  0  0  0  0
  4  9  1  6  0  0  0
  5  4  1  0  0  0  0
  5 60  1  0  0  0  0
  6  5  2  0  0  0  0
  6 61  1  0  0  0  0
  7  1  1  0  0  0  0
  7  6  1  0  0  0  0
  8  7  1  0  0  0  0
  9 10  2  0  0  0  0
  9 15  1  0  0  0  0
 10 11  1  0  0  0  0
 11 12  1  0  0  0  0
 11 13  1  0  0  0  0
 12 14  2  0  0  0  0
 14 16  1  0  0  0  0
 14 62  1  0  0  0  0
 15 18  1  0  0  0  0
 15 12  1  0  0  0  0
 16 63  1  0  0  0  0
 17 16  1  0  0  0  0
 17 64  1  0  0  0  0
 18 17  2  0  0  0  0
 18 65  1  0  0  0  0
 19 20  1  0  0  0  0
 19 10  1  0  0  0  0
 20 66  1  0  0  0  0
 21 25  1  0  0  0  0
 21 20  2  0  0  0  0
 22 21  1  0  0  0  0
 22 67  1  0  0  0  0
 23 22  2  0  0  0  0
 23 24  1  0  0  0  0
 23 68  1  0  0  0  0
 24 19  2  0  0  0  0
 24 69  1  0  0  0  0
 25 26  2  0  0  0  0
 27 29  1  0  0  0  0
 27 25  1  0  0  0  0
 28 27  1  0  0  0  0
 29 35  2  0  0  0  0
 30 32  2  0  0  0  0
 30 29  1  0  0  0  0
 31 30  1  0  0  0  0
 32 33  1  0  0  0  0
 32 70  1  0  0  0  0
 33 34  2  0  0  0  0
 33 71  1  0  0  0  0
 34 72  1  0  0  0  0
 35 34  1  0  0  0  0
 35 36  1  0  0  0  0
 37 38  1  0  0  0  0
 39 44  1  0  0  0  0
 39 37  1  0  0  0  0
 40 39  2  0  0  0  0
 41 42  2  0  0  0  0
 41 40  1  0  0  0  0
 41 73  1  0  0  0  0
 42 43  1  0  0  0  0
 43 44  2  0  0  0  0
 43 74  1  0  0  0  0
 44 75  1  0  0  0  0
 45 40  1  0  0  0  0
 46 45  1  0  0  0  0
 46 76  1  0  0  0  0
 46 77  1  0  0  0  0
 46 78  1  0  0  0  0
 47 52  1  0  0  0  0
 47 42  1  0  0  0  0
 48 47  1  0  0  0  0
 48 79  1  0  0  0  0
 48 80  1  0  0  0  0
 49 48  1  0  0  0  0
 49 50  1  0  0  0  0
 49 81  1  0  0  0  0
 49 82  1  0  0  0  0
 50 53  1  0  0  0  0
 50 51  1  0  0  0  0
 50 83  1  6  0  0  0
 51 84  1  0  0  0  0
 51 85  1  0  0  0  0
 52 51  1  0  0  0  0
 52 86  1  0  0  0  0
 52 87  1  0  0  0  0
 53 59  1  0  0  0  0
 54 53  1  0  0  0  0
 54 55  1  0  0  0  0
 54 88  1  0  0  0  0
 54 89  1  0  0  0  0
 55 56  1  0  0  0  0
 55 90  1  0  0  0  0
 55 91  1  0  0  0  0
 56 57  1  0  0  0  0
 56 92  1  0  0  0  0
 56 93  1  0  0  0  0
 57 58  1  0  0  0  0
 57 94  1  0  0  0  0
 57 95  1  0  0  0  0
 58 96  1  0  0  0  0
 58 97  1  0  0  0  0
 59 58  1  0  0  0  0
 59 98  1  0  0  0  0
 59 99  1  0  0  0  0
M  END
>  <REMARK>
 VINA RESULT:      -7.9      3.739      7.702
  9 active torsions:
  status: ('A' for Active; 'I' for Inactive)
    1  A    between atoms: O_2  and  C_3 
    2  A    between atoms: C_4  and  N_5 
    3  A    between atoms: N_5  and  C_7 
    4  A    between atoms: C_10  and  C_11 
    5  A    between atoms: C_12  and  C_13 
    6  A    between atoms: C_15  and  C_16 
       I    between atoms: C_16  and  N_18 
    7  A    between atoms: N_18  and  C_20 
    8  A    between atoms: C_45  and  N_46 
    9  A    between atoms: C_49  and  N_50 

>  <TORSDO>
F 9

$$$$
