resistance_project/docking/8faf60323ce63d5a/P00533_T790M/docked/molecule_0001_out.pdbqt
 OpenBabel09142609523D

 56 59  0  0  1  0  0  0  0  0999 V2000
  -47.2890   -3.3980  -20.7060 C   0  0  1  0  0  0  0  0  0  0  0  0
  -48.5260   -3.9080  -19.9640 C   0  0  0  0  0  0  0  0  0  0  0  0
  -49.6720   -3.5870  -20.7900 N   0  0  0  0  0  0  0  0  0  0  0  0
  -50.9190   -3.2920  -20.1270 C   0  0  0  0  0  0  0  0  0  0  0  0
  -49.5980   -3.5570  -22.2260 C   0  0  1  0  0  0  0  0  0  0  0  0
  -50.7820   -3.2800  -22.9940 C   0  0  0  0  0  0  0  0  0  0  0  0
  -51.7620   -3.0550  -23.6060 N   0  0  0  0  0  0  0  0  0  0  0  0
  -48.4430   -3.7850  -22.7980 N   0  0  0  0  0  0  0  0  0  0  0  0
  -48.3520   -3.7730  -23.8150 H   0  0  0  0  0  0  0  0  0  0  0  0
  -47.3420   -4.0470  -21.9850 O   0  0  0  0  0  0  0  0  0  0  0  0
  -47.5610   -1.9370  -20.9930 C   0  0  0  0  0  0  0  0  0  0  0  0
  -47.5330   -1.1410  -19.8270 O   0  0  0  0  0  0  0  0  0  0  0  0
  -48.6710   -0.4770  -19.3940 C   0  0  0  0  0  0  0  0  0  0  0  0
  -48.9850   -0.5750  -18.0400 C   0  0  0  0  0  0  0  0  0  0  0  0
  -50.1150    0.0800  -17.5850 C   0  0  0  0  0  0  0  0  0  0  0  0
  -50.9240    0.8140  -18.4320 C   0  0  0  0  0  0  0  0  0  0  0  0
  -52.0520    1.4650  -17.9680 C   0  0  1  0  0  0  0  0  0  0  0  0
  -50.6140    0.9120  -19.7770 C   0  0  0  0  0  0  0  0  0  0  0  0
  -52.8150    2.1700  -18.8200 N   0  0  0  0  0  0  0  0  0  0  0  0
  -52.5230    2.2700  -20.1230 C   0  0  0  0  0  0  0  0  0  0  0  0
  -53.6440    2.6440  -18.4620 H   0  0  0  0  0  0  0  0  0  0  0  0
  -51.4220    1.6320  -20.5610 N   0  0  0  0  0  0  0  0  0  0  0  0
  -51.1900    1.7020  -21.5520 H   0  0  0  0  0  0  0  0  0  0  0  0
  -49.4880    0.2580  -20.2170 C   0  0  0  0  0  0  0  0  0  0  0  0
  -48.1750   -1.3120  -17.1850 O   0  0  0  0  0  0  0  0  0  0  0  0
  -48.2900   -1.0930  -15.7950 C   0  0  0  0  0  0  0  0  0  0  0  0
  -52.3430    1.3440  -16.5790 N   0  0  0  0  0  0  0  0  0  0  0  0
  -52.8220    0.5250  -16.2030 H   0  0  0  0  0  0  0  0  0  0  0  0
  -51.9320    2.4260  -15.7370 C   0  0  0  0  0  0  0  0  0  0  0  0
  -52.4820    3.6910  -15.9360 C   0  0  0  0  0  0  0  0  0  0  0  0
  -52.1060    4.7610  -15.1370 C   0  0  0  0  0  0  0  0  0  0  0  0
  -52.7760    6.3480  -15.3670 Cl  0  0  0  0  0  0  0  0  0  0  0  0
  -51.1740    4.5420  -14.1400 C   0  0  0  0  0  0  0  0  0  0  0  0
  -50.6680    5.8590  -13.1090 Cl  0  0  0  0  0  0  0  0  0  0  0  0
  -50.6090    3.2900  -13.9190 C   0  0  0  0  0  0  0  0  0  0  0  0
  -50.9930    2.2210  -14.7260 C   0  0  0  0  0  0  0  0  0  0  0  0
  -46.3743   -3.5584  -20.1744 H   0  0  0  0  0  0  0  0  0  0  0  0
  -48.4596   -4.9664  -19.8215 H   0  0  0  0  0  0  0  0  0  0  0  0
  -48.6092   -3.4535  -18.9989 H   0  0  0  0  0  0  0  0  0  0  0  0
  -51.6693   -3.0752  -20.8584 H   0  0  0  0  0  0  0  0  0  0  0  0
  -50.7905   -2.4449  -19.4860 H   0  0  0  0  0  0  0  0  0  0  0  0
  -51.2221   -4.1371  -19.5448 H   0  0  0  0  0  0  0  0  0  0  0  0
  -49.8867   -3.4654  -23.2522 H   0  0  0  0  0  0  0  0  0  0  0  0
  -48.5274   -1.8504  -21.4441 H   0  0  0  0  0  0  0  0  0  0  0  0
  -46.7887   -1.5851  -21.6447 H   0  0  0  0  0  0  0  0  0  0  0  0
  -50.3612    0.0190  -16.5846 H   0  0  0  0  0  0  0  0  0  0  0  0
  -52.9192    2.0824  -18.0764 H   0  0  0  0  0  0  0  0  0  0  0  0
  -53.3573    1.8828  -20.6697 H   0  0  0  0  0  0  0  0  0  0  0  0
  -52.3181    3.3086  -20.2789 H   0  0  0  0  0  0  0  0  0  0  0  0
  -49.2441    0.3228  -21.2177 H   0  0  0  0  0  0  0  0  0  0  0  0
  -47.6058   -1.7309  -15.2756 H   0  0  0  0  0  0  0  0  0  0  0  0
  -49.2894   -1.3111  -15.4811 H   0  0  0  0  0  0  0  0  0  0  0  0
  -48.0620   -0.0710  -15.5749 H   0  0  0  0  0  0  0  0  0  0  0  0
  -53.1766    3.8333  -16.6859 H   0  0  0  0  0  0  0  0  0  0  0  0
  -49.9148    3.1549  -13.1674 H   0  0  0  0  0  0  0  0  0  0  0  0
  -50.5858    1.2846  -14.5769 H   0  0  0  0  0  0  0  0  0  0  0  0
  1  2  1  0  0  0  0
  1 37  1  1  0  0  0
  2 38  1  0  0  0  0
  2 39  1  0  0  0  0
  3  4  1  0  0  0  0
  3  2  1  0  0  0  0
  4 40  1  0  0  0  0
  4 41  1  0  0  0  0
  4 42  1  0  0  0  0
  5  3  1  0  0  0  0
  5 43  1  6  0  0  0
  6  5  1  0  0  0  0
  7  6  3  0  0  0  0
  8  5  1  0  0  0  0
  8 10  1  0  0  0  0
  9  8  1  0  0  0  0
 10  1  1  0  0  0  0
 11  1  1  0  0  0  0
 11 12  1  0  0  0  0
 11 44  1  0  0  0  0
 11 45  1  0  0  0  0
 12 13  1  0  0  0  0
 13 14  1  0  0  0  0
 14 15  2  0  0  0  0
 14 25  1  0  0  0  0
 15 46  1  0  0  0  0
 16 17  1  0  0  0  0
 16 15  1  0  0  0  0
 17 27  1  0  0  0  0
 17 47  1  1  0  0  0
 18 16  2  0  0  0  0
 19 21  1  0  0  0  0
 19 17  1  0  0  0  0
 20 19  1  0  0  0  0
 20 48  1  0  0  0  0
 20 49  1  0  0  0  0
 22 20  1  0  0  0  0
 22 18  1  0  0  0  0
 23 22  1  0  0  0  0
 24 18  1  0  0  0  0
 24 13  2  0  0  0  0
 24 50  1  0  0  0  0
 25 26  1  0  0  0  0
 26 51  1  0  0  0  0
 26 52  1  0  0  0  0
 26 53  1  0  0  0  0
 27 28  1  0  0  0  0
 27 29  1  0  0  0  0
 29 36  1  0  0  0  0
 30 29  2  0  0  0  0
 30 31  1  0  0  0  0
 30 54  1  0  0  0  0
 31 33  2  0  0  0  0
 32 31  1  0  0  0  0
 33 35  1  0  0  0  0
 33 34  1  0  0  0  0
 35 55  1  0  0  0  0
 36 35  2  0  0  0  0
 36 56  1  0  0  0  0
M  END
>  <MODEL>
1

>  <REMARK>
 VINA RESULT:      -7.8      0.000      0.000
  6 active torsions:
  status: ('A' for Active; 'I' for Inactive)
    1  A    between atoms: O_2  and  C_3 
    2  A    between atoms: C_4  and  O_5 
    3  A    between atoms: O_5  and  C_6 
    4  A    between atoms: C_6  and  C_7 
    5  A    between atoms: C_24  and  N_25 
    6  A    between atoms: N_25  and  C_27 

>  <TORSDO>
F 6

$$$$
resistance_project/docking/8faf60323ce63d5a/P00533_T790M/docked/molecule_0001_out.pdbqt
 OpenBabel09142609523D

 56 59  0  0  1  0  0  0  0  0999 V2000
  -50.1510   -0.9350  -13.5840 C   0  0  1  0  0  0  0  0  0  0  0  0
  -49.9290   -0.4110  -12.1650 C   0  0  0  0  0  0  0  0  0  0  0  0
  -51.2320   -0.3400  -11.5360 N   0  0  0  0  0  0  0  0  0  0  0  0
  -51.4520    0.6980  -10.5580 C   0  0  0  0  0  0  0  0  0  0  0  0
  -52.2890   -1.2600  -11.8560 C   0  0  1  0  0  0  0  0  0  0  0  0
  -53.5460   -1.1700  -11.1630 C   0  0  0  0  0  0  0  0  0  0  0  0
  -54.5670   -1.0830  -10.5830 N   0  0  0  0  0  0  0  0  0  0  0  0
  -52.0750   -2.1630  -12.7790 N   0  0  0  0  0  0  0  0  0  0  0  0
  -52.8020   -2.8340  -13.0330 H   0  0  0  0  0  0  0  0  0  0  0  0
  -50.8300   -2.1870  -13.4060 O   0  0  0  0  0  0  0  0  0  0  0  0
  -51.1790   -0.0130  -14.2020 C   0  0  0  0  0  0  0  0  0  0  0  0
  -50.5970    0.9730  -15.0290 O   0  0  0  0  0  0  0  0  0  0  0  0
  -50.7560    0.9280  -16.4060 C   0  0  0  0  0  0  0  0  0  0  0  0
  -49.7960    0.2270  -17.1330 C   0  0  0  0  0  0  0  0  0  0  0  0
  -49.9360    0.1680  -18.5060 C   0  0  0  0  0  0  0  0  0  0  0  0
  -50.9880    0.7810  -19.1610 C   0  0  0  0  0  0  0  0  0  0  0  0
  -51.1190    0.7160  -20.5360 C   0  0  0  0  0  0  0  0  0  0  0  0
  -51.9420    1.4780  -18.4410 C   0  0  0  0  0  0  0  0  0  0  0  0
  -52.1550    1.3240  -21.1380 N   0  0  0  0  0  0  0  0  0  0  0  0
  -53.0830    2.0010  -20.4490 C   0  0  0  0  0  0  0  0  0  0  0  0
  -52.2370    1.2670  -22.1530 H   0  0  0  0  0  0  0  0  0  0  0  0
  -52.9440    2.0550  -19.1120 N   0  0  0  0  0  0  0  0  0  0  0  0
  -53.6450    2.5680  -18.5780 H   0  0  0  0  0  0  0  0  0  0  0  0
  -51.7940    1.5290  -17.0760 C   0  0  0  0  0  0  0  0  0  0  0  0
  -48.7370   -0.3910  -16.4790 O   0  0  0  0  0  0  0  0  0  0  0  0
  -48.3580   -1.6880  -16.8900 C   0  0  0  0  0  0  0  0  0  0  0  0
  -50.1200   -0.0080  -21.2470 N   0  0  0  0  0  0  0  0  0  0  0  0
  -49.1600    0.3310  -21.3150 H   0  0  0  0  0  0  0  0  0  0  0  0
  -50.5280   -1.2350  -21.8620 C   0  0  0  0  0  0  0  0  0  0  0  0
  -51.0880   -1.2050  -23.1380 C   0  0  0  0  0  0  0  0  0  0  0  0
  -51.4930   -2.3750  -23.7620 C   0  0  0  0  0  0  0  0  0  0  0  0
  -52.1960   -2.3620  -25.3520 Cl  0  0  0  0  0  0  0  0  0  0  0  0
  -51.3290   -3.5710  -23.0890 C   0  0  0  0  0  0  0  0  0  0  0  0
  -51.8250   -5.0720  -23.8340 Cl  0  0  0  0  0  0  0  0  0  0  0  0
  -50.7720   -3.6310  -21.8150 C   0  0  0  0  0  0  0  0  0  0  0  0
  -50.3670   -2.4500  -21.1960 C   0  0  0  0  0  0  0  0  0  0  0  0
  -49.2514   -1.0064  -14.1588 H   0  0  0  0  0  0  0  0  0  0  0  0
  -49.4820    0.5606  -12.1969 H   0  0  0  0  0  0  0  0  0  0  0  0
  -49.2727   -1.0541  -11.6167 H   0  0  0  0  0  0  0  0  0  0  0  0
  -50.5616    1.2817  -10.4510 H   0  0  0  0  0  0  0  0  0  0  0  0
  -51.7028    0.2543   -9.6172 H   0  0  0  0  0  0  0  0  0  0  0  0
  -52.2547    1.3277  -10.8806 H   0  0  0  0  0  0  0  0  0  0  0  0
  -53.2411   -1.7475  -11.8289 H   0  0  0  0  0  0  0  0  0  0  0  0
  -51.8547   -0.5983  -14.7901 H   0  0  0  0  0  0  0  0  0  0  0  0
  -51.6842    0.4902  -13.4042 H   0  0  0  0  0  0  0  0  0  0  0  0
  -49.0416    0.5878  -18.9168 H   0  0  0  0  0  0  0  0  0  0  0  0
  -50.1442   -0.8692  -18.6668 H   0  0  0  0  0  0  0  0  0  0  0  0
  -54.0301    1.5478  -20.6552 H   0  0  0  0  0  0  0  0  0  0  0  0
  -52.9815    3.0147  -20.7760 H   0  0  0  0  0  0  0  0  0  0  0  0
  -52.4984    2.0450  -16.5260 H   0  0  0  0  0  0  0  0  0  0  0  0
  -47.5347   -2.0243  -16.2951 H   0  0  0  0  0  0  0  0  0  0  0  0
  -48.0682   -1.6654  -17.9198 H   0  0  0  0  0  0  0  0  0  0  0  0
  -49.1840   -2.3569  -16.7665 H   0  0  0  0  0  0  0  0  0  0  0  0
  -51.2025   -0.3017  -23.6238 H   0  0  0  0  0  0  0  0  0  0  0  0
  -50.6604   -4.5378  -21.3352 H   0  0  0  0  0  0  0  0  0  0  0  0
  -49.9510   -2.4741  -20.2519 H   0  0  0  0  0  0  0  0  0  0  0  0
  1 10  1  0  0  0  0
  1  2  1  0  0  0  0
  1 37  1  6  0  0  0
  2  3  1  0  0  0  0
  2 38  1  0  0  0  0
  2 39  1  0  0  0  0
  3  4  1  0  0  0  0
  4 40  1  0  0  0  0
  4 41  1  0  0  0  0
  4 42  1  0  0  0  0
  5  3  1  0  0  0  0
  5  6  1  0  0  0  0
  5 43  1  1  0  0  0
  6  7  3  0  0  0  0
  8  5  1  0  0  0  0
  9  8  1  0  0  0  0
 10  8  1  0  0  0  0
 11  1  1  0  0  0  0
 11 44  1  0  0  0  0
 11 45  1  0  0  0  0
 12 11  1  0  0  0  0
 13 12  1  0  0  0  0
 14 25  1  0  0  0  0
 14 13  2  0  0  0  0
 15 14  1  0  0  0  0
 15 46  1  0  0  0  0
 15 47  1  0  0  0  0
 16 15  1  0  0  0  0
 16 18  1  0  0  0  0
 17 16  2  0  0  0  0
 18 24  2  0  0  0  0
 19 17  1  0  0  0  0
 19 20  1  0  0  0  0
 20 22  1  0  0  0  0
 20 48  1  0  0  0  0
 20 49  1  0  0  0  0
 21 19  1  0  0  0  0
 22 23  1  0  0  0  0
 22 18  1  0  0  0  0
 24 13  1  0  0  0  0
 24 50  1  0  0  0  0
 26 25  1  0  0  0  0
 26 51  1  0  0  0  0
 26 52  1  0  0  0  0
 26 53  1  0  0  0  0
 27 17  1  0  0  0  0
 28 27  1  0  0  0  0
 29 27  1  0  0  0  0
 29 36  2  0  0  0  0
 30 29  1  0  0  0  0
 30 54  1  0  0  0  0
 31 30  2  0  0  0  0
 31 33  1  0  0  0  0
 32 31  1  0  0  0  0
 33 35  2  0  0  0  0
 34 33  1  0  0  0  0
 35 36  1  0  0  0  0
 35 55  1  0  0  0  0
 36 56  1  0  0  0  0
M  END
>  <REMARK>
 VINA RESULT:      -7.8      4.512      8.262
  6 active torsions:
  status: ('A' for Active; 'I' for Inactive)
    1  A    between atoms: O_2  and  C_3 
    2  A    between atoms: C_4  and  O_5 
    3  A    between atoms: O_5  and  C_6 
    4  A    between atoms: C_6  and  C_7 
    5  A    between atoms: C_24  and  N_25 
    6  A    between atoms: N_25  and  C_27 

>  <TORSDO>
F 6

$$$$
resistance_project/docking/8faf60323ce63d5a/P00533_T790M/docked/molecule_0001_out.pdbqt
 OpenBabel09142609523D

 56 59  0  0  1  0  0  0  0  0999 V2000
  -51.7940    0.2310  -12.4090 C   0  0  1  0  0  0  0  0  0  0  0  0
  -52.4610   -0.9380  -11.6830 C   0  0  0  0  0  0  0  0  0  0  0  0
  -51.6330   -2.1040  -11.9180 N   0  0  0  0  0  0  0  0  0  0  0  0
  -52.2860   -3.3880  -11.9930 C   0  0  0  0  0  0  0  0  0  0  0  0
  -50.2080   -2.0130  -12.0760 C   0  0  1  0  0  0  0  0  0  0  0  0
  -49.4340   -3.2110  -12.2590 C   0  0  0  0  0  0  0  0  0  0  0  0
  -48.8160   -4.2030  -12.4040 N   0  0  0  0  0  0  0  0  0  0  0  0
  -49.6480   -0.8300  -12.0490 N   0  0  0  0  0  0  0  0  0  0  0  0
  -48.6390   -0.7260  -12.1570 H   0  0  0  0  0  0  0  0  0  0  0  0
  -50.4660    0.2850  -11.8670 O   0  0  0  0  0  0  0  0  0  0  0  0
  -51.6180   -0.2270  -13.8410 C   0  0  0  0  0  0  0  0  0  0  0  0
  -50.7230    0.5910  -14.5650 O   0  0  0  0  0  0  0  0  0  0  0  0
  -50.8030    0.6790  -15.9470 C   0  0  0  0  0  0  0  0  0  0  0  0
  -49.8420   -0.0130  -16.6830 C   0  0  0  0  0  0  0  0  0  0  0  0
  -49.9030    0.0590  -18.0610 C   0  0  0  0  0  0  0  0  0  0  0  0
  -50.8790    0.7910  -18.7120 C   0  0  0  0  0  0  0  0  0  0  0  0
  -50.9310    0.8570  -20.0930 C   0  0  0  0  0  0  0  0  0  0  0  0
  -51.8330    1.4790  -17.9840 C   0  0  0  0  0  0  0  0  0  0  0  0
  -51.8940    1.5780  -20.6910 N   0  0  0  0  0  0  0  0  0  0  0  0
  -52.8210    2.2470  -19.9940 C   0  0  0  0  0  0  0  0  0  0  0  0
  -51.9180    1.6170  -21.7100 H   0  0  0  0  0  0  0  0  0  0  0  0
  -52.7590    2.1740  -18.6510 N   0  0  0  0  0  0  0  0  0  0  0  0
  -53.4610    2.6790  -18.1110 H   0  0  0  0  0  0  0  0  0  0  0  0
  -51.7630    1.3990  -16.6140 C   0  0  0  0  0  0  0  0  0  0  0  0
  -48.8600   -0.7500  -16.0330 O   0  0  0  0  0  0  0  0  0  0  0  0
  -49.0040   -2.1530  -15.9690 C   0  0  0  0  0  0  0  0  0  0  0  0
  -49.9340    0.1390  -20.8130 N   0  0  0  0  0  0  0  0  0  0  0  0
  -48.9570    0.4340  -20.8120 H   0  0  0  0  0  0  0  0  0  0  0  0
  -50.3690   -1.0160  -21.5390 C   0  0  0  0  0  0  0  0  0  0  0  0
  -50.1220   -2.2840  -21.0140 C   0  0  0  0  0  0  0  0  0  0  0  0
  -50.5300   -3.4220  -21.6910 C   0  0  0  0  0  0  0  0  0  0  0  0
  -50.2320   -5.0140  -21.0580 Cl  0  0  0  0  0  0  0  0  0  0  0  0
  -51.1880   -3.2710  -22.8980 C   0  0  0  0  0  0  0  0  0  0  0  0
  -51.7210   -4.6760  -23.7880 Cl  0  0  0  0  0  0  0  0  0  0  0  0
  -51.4480   -2.0180  -23.4450 C   0  0  0  0  0  0  0  0  0  0  0  0
  -51.0340   -0.8790  -22.7560 C   0  0  0  0  0  0  0  0  0  0  0  0
  -52.3347    1.1505  -12.3253 H   0  0  0  0  0  0  0  0  0  0  0  0
  -53.4446   -1.1002  -12.0719 H   0  0  0  0  0  0  0  0  0  0  0  0
  -52.5534   -0.7374  -10.6360 H   0  0  0  0  0  0  0  0  0  0  0  0
  -51.5556   -4.1499  -12.1688 H   0  0  0  0  0  0  0  0  0  0  0  0
  -52.9946   -3.3815  -12.7947 H   0  0  0  0  0  0  0  0  0  0  0  0
  -52.7922   -3.5851  -11.0711 H   0  0  0  0  0  0  0  0  0  0  0  0
  -49.1849   -2.2973  -12.2081 H   0  0  0  0  0  0  0  0  0  0  0  0
  -51.2408   -1.2283  -13.8370 H   0  0  0  0  0  0  0  0  0  0  0  0
  -52.5726   -0.1677  -14.3206 H   0  0  0  0  0  0  0  0  0  0  0  0
  -48.9639    0.4587  -18.3824 H   0  0  0  0  0  0  0  0  0  0  0  0
  -50.1580   -0.9452  -18.3284 H   0  0  0  0  0  0  0  0  0  0  0  0
  -53.7783    1.8731  -20.2919 H   0  0  0  0  0  0  0  0  0  0  0  0
  -52.6427    3.2775  -20.2205 H   0  0  0  0  0  0  0  0  0  0  0  0
  -52.4686    1.9065  -16.0576 H   0  0  0  0  0  0  0  0  0  0  0  0
  -48.1737   -2.5730  -15.4408 H   0  0  0  0  0  0  0  0  0  0  0  0
  -49.0357   -2.5539  -16.9606 H   0  0  0  0  0  0  0  0  0  0  0  0
  -49.9118   -2.3954  -15.4571 H   0  0  0  0  0  0  0  0  0  0  0  0
  -49.6300   -2.3758  -20.1115 H   0  0  0  0  0  0  0  0  0  0  0  0
  -51.9404   -1.9332  -24.3480 H   0  0  0  0  0  0  0  0  0  0  0  0
  -51.2187    0.0591  -23.1445 H   0  0  0  0  0  0  0  0  0  0  0  0
  1 10  1  0  0  0  0
  1  2  1  0  0  0  0
  1 37  1  1  0  0  0
  2 38  1  0  0  0  0
  2 39  1  0  0  0  0
  3  2  1  0  0  0  0
  4  3  1  0  0  0  0
  4 40  1  0  0  0  0
  4 41  1  0  0  0  0
  4 42  1  0  0  0  0
  5  8  1  0  0  0  0
  5  3  1  0  0  0  0
  5 43  1  1  0  0  0
  6  5  1  0  0  0  0
  7  6  3  0  0  0  0
  8 10  1  0  0  0  0
  9  8  1  0  0  0  0
 11  1  1  0  0  0  0
 11 44  1  0  0  0  0
 11 45  1  0  0  0  0
 12 11  1  0  0  0  0
 13 12  1  0  0  0  0
 14 25  1  0  0  0  0
 14 13  2  0  0  0  0
 15 14  1  0  0  0  0
 15 46  1  0  0  0  0
 15 47  1  0  0  0  0
 16 15  1  0  0  0  0
 16 18  1  0  0  0  0
 17 16  2  0  0  0  0
 18 24  2  0  0  0  0
 19 17  1  0  0  0  0
 19 20  1  0  0  0  0
 20 22  1  0  0  0  0
 20 48  1  0  0  0  0
 20 49  1  0  0  0  0
 21 19  1  0  0  0  0
 22 23  1  0  0  0  0
 22 18  1  0  0  0  0
 24 13  1  0  0  0  0
 24 50  1  0  0  0  0
 25 26  1  0  0  0  0
 26 51  1  0  0  0  0
 26 52  1  0  0  0  0
 26 53  1  0  0  0  0
 27 28  1  0  0  0  0
 27 17  1  0  0  0  0
 29 30  1  0  0  0  0
 29 27  1  0  0  0  0
 30 54  1  0  0  0  0
 31 32  1  0  0  0  0
 31 30  2  0  0  0  0
 33 31  1  0  0  0  0
 34 33  1  0  0  0  0
 35 33  2  0  0  0  0
 35 36  1  0  0  0  0
 35 55  1  0  0  0  0
 36 29  2  0  0  0  0
 36 56  1  0  0  0  0
M  END
>  <REMARK>
 VINA RESULT:      -7.7      4.624      8.136
  6 active torsions:
  status: ('A' for Active; 'I' for Inactive)
    1  A    between atoms: O_2  and  C_3 
    2  A    between atoms: C_4  and  O_5 
    3  A    between atoms: O_5  and  C_6 
    4  A    between atoms: C_6  and  C_7 
    5  A    between atoms: C_24  and  N_25 
    6  A    between atoms: N_25  and  C_27 

>  <TORSDO>
F 6

$$$$
resistance_project/docking/8faf60323ce63d5a/P00533_T790M/docked/molecule_0001_out.pdbqt
 OpenBabel09142609523D

 56 59  0  0  1  0  0  0  0  0999 V2000
  -50.7900    0.7430  -14.9520 C   0  0  1  0  0  0  0  0  0  0  0  0
  -50.8270   -0.5660  -14.1620 C   0  0  0  0  0  0  0  0  0  0  0  0
  -50.0380   -1.5270  -14.9060 N   0  0  0  0  0  0  0  0  0  0  0  0
  -50.4290   -2.9140  -14.8400 C   0  0  0  0  0  0  0  0  0  0  0  0
  -48.8980   -1.1390  -15.6910 C   0  0  1  0  0  0  0  0  0  0  0  0
  -48.1250   -2.1450  -16.3690 C   0  0  0  0  0  0  0  0  0  0  0  0
  -47.5010   -2.9820  -16.9130 N   0  0  0  0  0  0  0  0  0  0  0  0
  -48.5940    0.1320  -15.7690 N   0  0  0  0  0  0  0  0  0  0  0  0
  -47.7920    0.4450  -16.3170 H   0  0  0  0  0  0  0  0  0  0  0  0
  -49.3930    1.0460  -15.0830 O   0  0  0  0  0  0  0  0  0  0  0  0
  -51.2500    0.3880  -16.3490 C   0  0  0  0  0  0  0  0  0  0  0  0
  -50.8770    1.3580  -17.3060 O   0  0  0  0  0  0  0  0  0  0  0  0
  -51.1890    1.1880  -18.6460 C   0  0  0  0  0  0  0  0  0  0  0  0
  -50.2040    0.6350  -19.4620 C   0  0  0  0  0  0  0  0  0  0  0  0
  -50.4930    0.4560  -20.8010 C   0  0  0  0  0  0  0  0  0  0  0  0
  -51.7180    0.8090  -21.3380 C   0  0  0  0  0  0  0  0  0  0  0  0
  -51.9970    0.6260  -22.6800 C   0  0  0  0  0  0  0  0  0  0  0  0
  -52.6970    1.3590  -20.5300 C   0  0  0  0  0  0  0  0  0  0  0  0
  -53.1980    0.9810  -23.1660 N   0  0  0  0  0  0  0  0  0  0  0  0
  -54.1530    1.5130  -22.3920 C   0  0  0  0  0  0  0  0  0  0  0  0
  -53.3890    0.8400  -24.1580 H   0  0  0  0  0  0  0  0  0  0  0  0
  -53.8670    1.6860  -21.0880 N   0  0  0  0  0  0  0  0  0  0  0  0
  -54.5870    2.0900  -20.4890 H   0  0  0  0  0  0  0  0  0  0  0  0
  -52.3980    1.5310  -19.2000 C   0  0  0  0  0  0  0  0  0  0  0  0
  -48.9720    0.2790  -18.9270 O   0  0  0  0  0  0  0  0  0  0  0  0
  -48.1750   -0.6470  -19.6340 C   0  0  0  0  0  0  0  0  0  0  0  0
  -50.9670    0.0590  -23.4830 N   0  0  0  0  0  0  0  0  0  0  0  0
  -50.3230    0.6430  -24.0170 H   0  0  0  0  0  0  0  0  0  0  0  0
  -50.8810   -1.3700  -23.5070 C   0  0  0  0  0  0  0  0  0  0  0  0
  -49.7070   -1.9890  -23.0800 C   0  0  0  0  0  0  0  0  0  0  0  0
  -49.5910   -3.3700  -23.0900 C   0  0  0  0  0  0  0  0  0  0  0  0
  -48.1360   -4.1650  -22.5650 Cl  0  0  0  0  0  0  0  0  0  0  0  0
  -50.6650   -4.1190  -23.5320 C   0  0  0  0  0  0  0  0  0  0  0  0
  -50.5660   -5.8630  -23.5640 Cl  0  0  0  0  0  0  0  0  0  0  0  0
  -51.8500   -3.5280  -23.9630 C   0  0  0  0  0  0  0  0  0  0  0  0
  -51.9570   -2.1380  -23.9490 C   0  0  0  0  0  0  0  0  0  0  0  0
  -51.3656    1.5279  -14.5075 H   0  0  0  0  0  0  0  0  0  0  0  0
  -51.8354   -0.9112  -14.0683 H   0  0  0  0  0  0  0  0  0  0  0  0
  -50.4357   -0.4300  -13.1754 H   0  0  0  0  0  0  0  0  0  0  0  0
  -49.7604   -3.5017  -15.4337 H   0  0  0  0  0  0  0  0  0  0  0  0
  -51.4259   -3.0217  -15.2134 H   0  0  0  0  0  0  0  0  0  0  0  0
  -50.3907   -3.2474  -13.8240 H   0  0  0  0  0  0  0  0  0  0  0  0
  -48.0010   -1.1993  -16.2712 H   0  0  0  0  0  0  0  0  0  0  0  0
  -50.8159   -0.5503  -16.6248 H   0  0  0  0  0  0  0  0  0  0  0  0
  -52.3188    0.3394  -16.3360 H   0  0  0  0  0  0  0  0  0  0  0  0
  -49.7565    1.0110  -21.3436 H   0  0  0  0  0  0  0  0  0  0  0  0
  -50.5072   -0.6103  -20.8883 H   0  0  0  0  0  0  0  0  0  0  0  0
  -55.0081    0.8726  -22.4511 H   0  0  0  0  0  0  0  0  0  0  0  0
  -54.2969    2.5018  -22.7747 H   0  0  0  0  0  0  0  0  0  0  0  0
  -53.1195    1.9392  -18.5853 H   0  0  0  0  0  0  0  0  0  0  0  0
  -47.2648   -0.8168  -19.0977 H   0  0  0  0  0  0  0  0  0  0  0  0
  -47.9497   -0.2560  -20.6042 H   0  0  0  0  0  0  0  0  0  0  0  0
  -48.7064   -1.5701  -19.7361 H   0  0  0  0  0  0  0  0  0  0  0  0
  -48.9159   -1.4126  -22.7530 H   0  0  0  0  0  0  0  0  0  0  0  0
  -52.6375   -4.1104  -24.2880 H   0  0  0  0  0  0  0  0  0  0  0  0
  -52.8270   -1.6808  -24.2638 H   0  0  0  0  0  0  0  0  0  0  0  0
  1  2  1  0  0  0  0
  1 37  1  1  0  0  0
  2 38  1  0  0  0  0
  2 39  1  0  0  0  0
  3  4  1  0  0  0  0
  3  2  1  0  0  0  0
  4 40  1  0  0  0  0
  4 41  1  0  0  0  0
  4 42  1  0  0  0  0
  5  3  1  0  0  0  0
  5 43  1  1  0  0  0
  6  5  1  0  0  0  0
  7  6  3  0  0  0  0
  8  5  1  0  0  0  0
  8 10  1  0  0  0  0
  9  8  1  0  0  0  0
 10  1  1  0  0  0  0
 11  1  1  0  0  0  0
 11 44  1  0  0  0  0
 11 45  1  0  0  0  0
 12 11  1  0  0  0  0
 13 12  1  0  0  0  0
 14 25  1  0  0  0  0
 14 13  2  0  0  0  0
 15 14  1  0  0  0  0
 15 46  1  0  0  0  0
 15 47  1  0  0  0  0
 16 15  1  0  0  0  0
 16 18  1  0  0  0  0
 17 16  2  0  0  0  0
 18 24  2  0  0  0  0
 19 17  1  0  0  0  0
 19 20  1  0  0  0  0
 20 22  1  0  0  0  0
 20 48  1  0  0  0  0
 20 49  1  0  0  0  0
 21 19  1  0  0  0  0
 22 18  1  0  0  0  0
 22 23  1  0  0  0  0
 24 13  1  0  0  0  0
 24 50  1  0  0  0  0
 26 25  1  0  0  0  0
 26 51  1  0  0  0  0
 26 52  1  0  0  0  0
 26 53  1  0  0  0  0
 27 17  1  0  0  0  0
 28 27  1  0  0  0  0
 29 27  1  0  0  0  0
 29 30  2  0  0  0  0
 30 54  1  0  0  0  0
 31 30  1  0  0  0  0
 31 32  1  0  0  0  0
 33 31  2  0  0  0  0
 34 33  1  0  0  0  0
 35 36  2  0  0  0  0
 35 33  1  0  0  0  0
 35 55  1  0  0  0  0
 36 29  1  0  0  0  0
 36 56  1  0  0  0  0
M  END
>  <REMARK>
 VINA RESULT:      -7.7      4.369      7.670
  6 active torsions:
  status: ('A' for Active; 'I' for Inactive)
    1  A    between atoms: O_2  and  C_3 
    2  A    between atoms: C_4  and  O_5 
    3  A    between atoms: O_5  and  C_6 
    4  A    between atoms: C_6  and  C_7 
    5  A    between atoms: C_24  and  N_25 
    6  A    between atoms: N_25  and  C_27 

>  <TORSDO>
F 6

$$$$
resistance_project/docking/8faf60323ce63d5a/P00533_T790M/docked/molecule_0001_out.pdbqt
 OpenBabel09142609523D

 56 59  0  0  1  0  0  0  0  0999 V2000
  -51.4370   -0.7560  -12.5270 C   0  0  1  0  0  0  0  0  0  0  0  0
  -52.4780   -1.4570  -11.6530 C   0  0  0  0  0  0  0  0  0  0  0  0
  -51.9940   -2.8040  -11.4240 N   0  0  0  0  0  0  0  0  0  0  0  0
  -52.9720   -3.8540  -11.2770 C   0  0  0  0  0  0  0  0  0  0  0  0
  -50.5930   -3.1120  -11.3420 C   0  0  1  0  0  0  0  0  0  0  0  0
  -50.1750   -4.4600  -11.0650 C   0  0  0  0  0  0  0  0  0  0  0  0
  -49.8510   -5.5670  -10.8340 N   0  0  0  0  0  0  0  0  0  0  0  0
  -49.7280   -2.1460  -11.5240 N   0  0  0  0  0  0  0  0  0  0  0  0
  -48.7240   -2.3260  -11.4730 H   0  0  0  0  0  0  0  0  0  0  0  0
  -50.2110   -0.8650  -11.7880 O   0  0  0  0  0  0  0  0  0  0  0  0
  -51.2510   -1.6500  -13.7340 C   0  0  0  0  0  0  0  0  0  0  0  0
  -50.0940   -1.3260  -14.4760 O   0  0  0  0  0  0  0  0  0  0  0  0
  -50.1250   -1.2970  -15.8620 C   0  0  0  0  0  0  0  0  0  0  0  0
  -50.1770   -0.0430  -16.4680 C   0  0  0  0  0  0  0  0  0  0  0  0
  -50.2080    0.0110  -17.8480 C   0  0  0  0  0  0  0  0  0  0  0  0
  -50.1890   -1.1320  -18.6250 C   0  0  0  0  0  0  0  0  0  0  0  0
  -50.2210   -1.0670  -20.0060 C   0  0  0  0  0  0  0  0  0  0  0  0
  -50.1380   -2.3780  -18.0250 C   0  0  0  0  0  0  0  0  0  0  0  0
  -50.2020   -2.2000  -20.7290 N   0  0  0  0  0  0  0  0  0  0  0  0
  -50.1520   -3.4100  -20.1570 C   0  0  0  0  0  0  0  0  0  0  0  0
  -50.2260   -2.1350  -21.7460 H   0  0  0  0  0  0  0  0  0  0  0  0
  -50.1220   -3.4580  -18.8120 N   0  0  0  0  0  0  0  0  0  0  0  0
  -50.0840   -4.3750  -18.3660 H   0  0  0  0  0  0  0  0  0  0  0  0
  -50.1070   -2.4190  -16.6520 C   0  0  0  0  0  0  0  0  0  0  0  0
  -50.1950    1.1090  -15.6910 O   0  0  0  0  0  0  0  0  0  0  0  0
  -51.4080    1.8230  -15.5770 C   0  0  0  0  0  0  0  0  0  0  0  0
  -50.2740    0.2300  -20.5920 N   0  0  0  0  0  0  0  0  0  0  0  0
  -49.5330    0.9150  -20.4420 H   0  0  0  0  0  0  0  0  0  0  0  0
  -51.4180    0.5260  -21.4010 C   0  0  0  0  0  0  0  0  0  0  0  0
  -51.3790    0.2440  -22.7650 C   0  0  0  0  0  0  0  0  0  0  0  0
  -52.4690    0.5190  -23.5760 C   0  0  0  0  0  0  0  0  0  0  0  0
  -52.4450    0.1780  -25.2800 Cl  0  0  0  0  0  0  0  0  0  0  0  0
  -53.5950    1.0780  -23.0000 C   0  0  0  0  0  0  0  0  0  0  0  0
  -54.9940    1.4420  -23.9810 Cl  0  0  0  0  0  0  0  0  0  0  0  0
  -53.6610    1.3690  -21.6400 C   0  0  0  0  0  0  0  0  0  0  0  0
  -52.5600    1.0890  -20.8330 C   0  0  0  0  0  0  0  0  0  0  0  0
  -51.7014    0.2483  -12.7848 H   0  0  0  0  0  0  0  0  0  0  0  0
  -53.4221   -1.4853  -12.1557 H   0  0  0  0  0  0  0  0  0  0  0  0
  -52.6164   -0.9364  -10.7285 H   0  0  0  0  0  0  0  0  0  0  0  0
  -53.9550   -3.4409  -11.3663 H   0  0  0  0  0  0  0  0  0  0  0  0
  -52.8631   -4.3108  -10.3155 H   0  0  0  0  0  0  0  0  0  0  0  0
  -52.8234   -4.5892  -12.0401 H   0  0  0  0  0  0  0  0  0  0  0  0
  -49.6918   -3.6738  -11.2108 H   0  0  0  0  0  0  0  0  0  0  0  0
  -51.1718   -2.6637  -13.4008 H   0  0  0  0  0  0  0  0  0  0  0  0
  -52.0967   -1.5103  -14.3745 H   0  0  0  0  0  0  0  0  0  0  0  0
  -51.1041    0.5351  -18.1075 H   0  0  0  0  0  0  0  0  0  0  0  0
  -49.2620    0.4552  -18.0774 H   0  0  0  0  0  0  0  0  0  0  0  0
  -49.2700   -3.8984  -20.5155 H   0  0  0  0  0  0  0  0  0  0  0  0
  -51.0749   -3.8791  -20.4273 H   0  0  0  0  0  0  0  0  0  0  0  0
  -50.0682   -3.3414  -16.1909 H   0  0  0  0  0  0  0  0  0  0  0  0
  -51.2610    2.6783  -14.9511 H   0  0  0  0  0  0  0  0  0  0  0  0
  -52.1554    1.1900  -15.1462 H   0  0  0  0  0  0  0  0  0  0  0  0
  -51.7268    2.1418  -16.5474 H   0  0  0  0  0  0  0  0  0  0  0  0
  -50.5296   -0.1740  -23.1758 H   0  0  0  0  0  0  0  0  0  0  0  0
  -54.5136    1.7863  -21.2352 H   0  0  0  0  0  0  0  0  0  0  0  0
  -52.5897    1.2968  -19.8226 H   0  0  0  0  0  0  0  0  0  0  0  0
  1 10  1  0  0  0  0
  1  2  1  0  0  0  0
  1 37  1  6  0  0  0
  2  3  1  0  0  0  0
  2 38  1  0  0  0  0
  2 39  1  0  0  0  0
  3  5  1  0  0  0  0
  3  4  1  0  0  0  0
  4 40  1  0  0  0  0
  4 41  1  0  0  0  0
  4 42  1  0  0  0  0
  5  6  1  0  0  0  0
  5 43  1  1  0  0  0
  6  7  3  0  0  0  0
  8  9  1  0  0  0  0
  8  5  1  0  0  0  0
 10  8  1  0  0  0  0
 11  1  1  0  0  0  0
 11 44  1  0  0  0  0
 11 45  1  0  0  0  0
 12 11  1  0  0  0  0
 13 12  1  0  0  0  0
 14 13  2  0  0  0  0
 14 25  1  0  0  0  0
 15 14  1  0  0  0  0
 15 46  1  0  0  0  0
 15 47  1  0  0  0  0
 16 18  1  0  0  0  0
 16 15  1  0  0  0  0
 17 16  2  0  0  0  0
 18 24  2  0  0  0  0
 19 20  1  0  0  0  0
 19 17  1  0  0  0  0
 20 22  1  0  0  0  0
 20 48  1  0  0  0  0
 20 49  1  0  0  0  0
 21 19  1  0  0  0  0
 22 23  1  0  0  0  0
 22 18  1  0  0  0  0
 24 13  1  0  0  0  0
 24 50  1  0  0  0  0
 25 26  1  0  0  0  0
 26 51  1  0  0  0  0
 26 52  1  0  0  0  0
 26 53  1  0  0  0  0
 27 28  1  0  0  0  0
 27 17  1  0  0  0  0
 29 36  1  0  0  0  0
 29 27  1  0  0  0  0
 30 29  2  0  0  0  0
 30 54  1  0  0  0  0
 31 33  2  0  0  0  0
 31 30  1  0  0  0  0
 32 31  1  0  0  0  0
 33 35  1  0  0  0  0
 34 33  1  0  0  0  0
 35 36  2  0  0  0  0
 35 55  1  0  0  0  0
 36 56  1  0  0  0  0
M  END
>  <REMARK>
 VINA RESULT:      -7.5      4.732      8.025
  6 active torsions:
  status: ('A' for Active; 'I' for Inactive)
    1  A    between atoms: O_2  and  C_3 
    2  A    between atoms: C_4  and  O_5 
    3  A    between atoms: O_5  and  C_6 
    4  A    between atoms: C_6  and  C_7 
    5  A    between atoms: C_24  and  N_25 
    6  A    between atoms: N_25  and  C_27 

>  <TORSDO>
F 6

$$$$
resistance_project/docking/8faf60323ce63d5a/P00533_T790M/docked/molecule_0001_out.pdbqt
 OpenBabel09142609523D

 56 59  0  0  1  0  0  0  0  0999 V2000
  -48.3700   -2.3540  -22.4440 C   0  0  1  0  0  0  0  0  0  0  0  0
  -47.5580   -3.4360  -23.1580 C   0  0  0  0  0  0  0  0  0  0  0  0
  -47.7200   -4.6540  -22.3910 N   0  0  0  0  0  0  0  0  0  0  0  0
  -46.6170   -5.5850  -22.3650 C   0  0  0  0  0  0  0  0  0  0  0  0
  -48.9270   -4.9530  -21.6710 C   0  0  1  0  0  0  0  0  0  0  0  0
  -49.0470   -6.2020  -20.9670 C   0  0  0  0  0  0  0  0  0  0  0  0
  -49.1280   -7.2300  -20.4000 N   0  0  0  0  0  0  0  0  0  0  0  0
  -49.8940   -4.0700  -21.6760 N   0  0  0  0  0  0  0  0  0  0  0  0
  -50.7670   -4.2470  -21.1760 H   0  0  0  0  0  0  0  0  0  0  0  0
  -49.7030   -2.8830  -22.3820 O   0  0  0  0  0  0  0  0  0  0  0  0
  -47.8780   -2.3530  -21.0130 C   0  0  0  0  0  0  0  0  0  0  0  0
  -47.7500   -1.0500  -20.4840 O   0  0  0  0  0  0  0  0  0  0  0  0
  -48.8370   -0.4100  -19.9070 C   0  0  0  0  0  0  0  0  0  0  0  0
  -48.9640   -0.5010  -18.5220 C   0  0  0  0  0  0  0  0  0  0  0  0
  -50.0390    0.1290  -17.9250 C   0  0  0  0  0  0  0  0  0  0  0  0
  -50.9730    0.8350  -18.6610 C   0  0  0  0  0  0  0  0  0  0  0  0
  -52.0460    1.4620  -18.0540 C   0  0  2  0  0  0  0  0  0  0  0  0
  -50.8490    0.9260  -20.0360 C   0  0  0  0  0  0  0  0  0  0  0  0
  -52.9340    2.1390  -18.8010 N   0  0  0  0  0  0  0  0  0  0  0  0
  -52.8220    2.2330  -20.1320 C   0  0  0  0  0  0  0  0  0  0  0  0
  -53.7200    2.5960  -18.3380 H   0  0  0  0  0  0  0  0  0  0  0  0
  -51.7730    1.6180  -20.7100 N   0  0  0  0  0  0  0  0  0  0  0  0
  -51.6780    1.6830  -21.7230 H   0  0  0  0  0  0  0  0  0  0  0  0
  -49.7760    0.2960  -20.6180 C   0  0  0  0  0  0  0  0  0  0  0  0
  -48.0280   -1.2090  -17.7790 O   0  0  0  0  0  0  0  0  0  0  0  0
  -48.4560   -2.3560  -17.0760 C   0  0  0  0  0  0  0  0  0  0  0  0
  -52.1450    1.3480  -16.6380 N   0  0  0  0  0  0  0  0  0  0  0  0
  -52.3410    0.4550  -16.1860 H   0  0  0  0  0  0  0  0  0  0  0  0
  -51.9560    2.5480  -15.8790 C   0  0  0  0  0  0  0  0  0  0  0  0
  -51.1560    2.5140  -14.7380 C   0  0  0  0  0  0  0  0  0  0  0  0
  -50.9530    3.6590  -13.9820 C   0  0  0  0  0  0  0  0  0  0  0  0
  -49.9620    3.6420  -12.5540 Cl  0  0  0  0  0  0  0  0  0  0  0  0
  -51.5620    4.8320  -14.3860 C   0  0  0  0  0  0  0  0  0  0  0  0
  -51.3360    6.3000  -13.4650 Cl  0  0  0  0  0  0  0  0  0  0  0  0
  -52.3650    4.8950  -15.5210 C   0  0  0  0  0  0  0  0  0  0  0  0
  -52.5630    3.7400  -16.2750 C   0  0  0  0  0  0  0  0  0  0  0  0
  -48.3051   -1.3932  -22.9105 H   0  0  0  0  0  0  0  0  0  0  0  0
  -46.5254   -3.1580  -23.1944 H   0  0  0  0  0  0  0  0  0  0  0  0
  -47.8953   -3.5681  -24.1648 H   0  0  0  0  0  0  0  0  0  0  0  0
  -45.8102   -5.1986  -22.9522 H   0  0  0  0  0  0  0  0  0  0  0  0
  -46.9335   -6.5243  -22.7680 H   0  0  0  0  0  0  0  0  0  0  0  0
  -46.2897   -5.7221  -21.3556 H   0  0  0  0  0  0  0  0  0  0  0  0
  -49.6242   -5.5012  -21.0724 H   0  0  0  0  0  0  0  0  0  0  0  0
  -46.9219   -2.8322  -20.9789 H   0  0  0  0  0  0  0  0  0  0  0  0
  -48.6015   -2.8736  -20.4210 H   0  0  0  0  0  0  0  0  0  0  0  0
  -50.1481    0.0711  -16.9004 H   0  0  0  0  0  0  0  0  0  0  0  0
  -52.9429    2.0454  -18.0433 H   0  0  0  0  0  0  0  0  0  0  0  0
  -53.7117    1.8196  -20.5590 H   0  0  0  0  0  0  0  0  0  0  0  0
  -52.6668    3.2747  -20.3209 H   0  0  0  0  0  0  0  0  0  0  0  0
  -49.6701    0.3564  -21.6428 H   0  0  0  0  0  0  0  0  0  0  0  0
  -47.6254   -2.7867  -16.5568 H   0  0  0  0  0  0  0  0  0  0  0  0
  -48.8539   -3.0698  -17.7667 H   0  0  0  0  0  0  0  0  0  0  0  0
  -49.2131   -2.0808  -16.3717 H   0  0  0  0  0  0  0  0  0  0  0  0
  -50.7103    1.6280  -14.4529 H   0  0  0  0  0  0  0  0  0  0  0  0
  -52.8075    5.7845  -15.8002 H   0  0  0  0  0  0  0  0  0  0  0  0
  -53.1544    3.7662  -17.1203 H   0  0  0  0  0  0  0  0  0  0  0  0
  1 10  1  0  0  0  0
  1 11  1  0  0  0  0
  1 37  1  6  0  0  0
  2  1  1  0  0  0  0
  2  3  1  0  0  0  0
  2 38  1  0  0  0  0
  2 39  1  0  0  0  0
  3  4  1  0  0  0  0
  3  5  1  0  0  0  0
  4 40  1  0  0  0  0
  4 41  1  0  0  0  0
  4 42  1  0  0  0  0
  5  6  1  0  0  0  0
  5 43  1  6  0  0  0
  6  7  3  0  0  0  0
  8  5  1  0  0  0  0
  8  9  1  0  0  0  0
 10  8  1  0  0  0  0
 11 12  1  0  0  0  0
 11 44  1  0  0  0  0
 11 45  1  0  0  0  0
 12 13  1  0  0  0  0
 13 14  1  0  0  0  0
 14 15  2  0  0  0  0
 14 25  1  0  0  0  0
 15 46  1  0  0  0  0
 16 17  1  0  0  0  0
 16 15  1  0  0  0  0
 17 27  1  0  0  0  0
 17 47  1  6  0  0  0
 18 16  2  0  0  0  0
 19 21  1  0  0  0  0
 19 17  1  0  0  0  0
 20 19  1  0  0  0  0
 20 48  1  0  0  0  0
 20 49  1  0  0  0  0
 22 20  1  0  0  0  0
 22 18  1  0  0  0  0
 23 22  1  0  0  0  0
 24 18  1  0  0  0  0
 24 13  2  0  0  0  0
 24 50  1  0  0  0  0
 25 26  1  0  0  0  0
 26 51  1  0  0  0  0
 26 52  1  0  0  0  0
 26 53  1  0  0  0  0
 27 28  1  0  0  0  0
 27 29  1  0  0  0  0
 29 30  1  0  0  0  0
 30 31  2  0  0  0  0
 30 54  1  0  0  0  0
 31 32  1  0  0  0  0
 33 31  1  0  0  0  0
 33 34  1  0  0  0  0
 35 33  2  0  0  0  0
 35 55  1  0  0  0  0
 36 29  2  0  0  0  0
 36 35  1  0  0  0  0
 36 56  1  0  0  0  0
M  END
>  <REMARK>
 VINA RESULT:      -7.3      1.390      2.307
  6 active torsions:
  status: ('A' for Active; 'I' for Inactive)
    1  A    between atoms: O_2  and  C_3 
    2  A    between atoms: C_4  and  O_5 
    3  A    between atoms: O_5  and  C_6 
    4  A    between atoms: C_6  and  C_7 
    5  A    between atoms: C_24  and  N_25 
    6  A    between atoms: N_25  and  C_27 

>  <TORSDO>
F 6

$$$$
resistance_project/docking/8faf60323ce63d5a/P00533_T790M/docked/molecule_0001_out.pdbqt
 OpenBabel09142609523D

 56 59  0  0  1  0  0  0  0  0999 V2000
  -49.9570    1.5060  -13.2320 C   0  0  1  0  0  0  0  0  0  0  0  0
  -50.8430    1.1000  -12.0530 C   0  0  0  0  0  0  0  0  0  0  0  0
  -51.4160   -0.1890  -12.3840 N   0  0  0  0  0  0  0  0  0  0  0  0
  -52.7350   -0.4880  -11.8800 C   0  0  0  0  0  0  0  0  0  0  0  0
  -50.7170   -1.1560  -13.1840 C   0  0  2  0  0  0  0  0  0  0  0  0
  -51.3180   -2.4380  -13.4380 C   0  0  0  0  0  0  0  0  0  0  0  0
  -51.8230   -3.4830  -13.6330 N   0  0  0  0  0  0  0  0  0  0  0  0
  -49.5410   -0.8400  -13.6640 N   0  0  0  0  0  0  0  0  0  0  0  0
  -49.0140   -1.5010  -14.2370 H   0  0  0  0  0  0  0  0  0  0  0  0
  -49.0250    0.4230  -13.3740 O   0  0  0  0  0  0  0  0  0  0  0  0
  -50.8450    1.4250  -14.4550 C   0  0  0  0  0  0  0  0  0  0  0  0
  -50.1100    1.4300  -15.6610 O   0  0  0  0  0  0  0  0  0  0  0  0
  -50.6830    0.9840  -16.8420 C   0  0  0  0  0  0  0  0  0  0  0  0
  -50.3710   -0.3120  -17.2490 C   0  0  0  0  0  0  0  0  0  0  0  0
  -50.9320   -0.7770  -18.4230 C   0  0  0  0  0  0  0  0  0  0  0  0
  -51.7780    0.0030  -19.1880 C   0  0  0  0  0  0  0  0  0  0  0  0
  -52.3340   -0.4720  -20.3620 C   0  0  0  0  0  0  0  0  0  0  0  0
  -52.0890    1.2900  -18.7870 C   0  0  0  0  0  0  0  0  0  0  0  0
  -53.1530    0.3140  -21.0800 N   0  0  0  0  0  0  0  0  0  0  0  0
  -53.4590    1.5610  -20.6990 C   0  0  0  0  0  0  0  0  0  0  0  0
  -53.5550   -0.0510  -21.9430 H   0  0  0  0  0  0  0  0  0  0  0  0
  -52.9120    2.0110  -19.5540 N   0  0  0  0  0  0  0  0  0  0  0  0
  -53.1390    2.9590  -19.2550 H   0  0  0  0  0  0  0  0  0  0  0  0
  -51.5270    1.7420  -17.6170 C   0  0  0  0  0  0  0  0  0  0  0  0
  -49.5210   -1.0990  -16.4830 O   0  0  0  0  0  0  0  0  0  0  0  0
  -48.2320   -1.3830  -16.9870 C   0  0  0  0  0  0  0  0  0  0  0  0
  -51.9940   -1.8000  -20.7470 N   0  0  0  0  0  0  0  0  0  0  0  0
  -52.3380   -2.6110  -20.2320 H   0  0  0  0  0  0  0  0  0  0  0  0
  -51.1450   -1.9430  -21.8920 C   0  0  0  0  0  0  0  0  0  0  0  0
  -49.7720   -2.0940  -21.7080 C   0  0  0  0  0  0  0  0  0  0  0  0
  -48.9230   -2.2350  -22.7950 C   0  0  0  0  0  0  0  0  0  0  0  0
  -47.2070   -2.4240  -22.5910 Cl  0  0  0  0  0  0  0  0  0  0  0  0
  -49.4700   -2.2210  -24.0640 C   0  0  0  0  0  0  0  0  0  0  0  0
  -48.4400   -2.3940  -25.4650 Cl  0  0  0  0  0  0  0  0  0  0  0  0
  -50.8370   -2.0720  -24.2770 C   0  0  0  0  0  0  0  0  0  0  0  0
  -51.6830   -1.9320  -23.1790 C   0  0  0  0  0  0  0  0  0  0  0  0
  -49.4957    2.4638  -13.1105 H   0  0  0  0  0  0  0  0  0  0  0  0
  -51.6193    1.8223  -11.9098 H   0  0  0  0  0  0  0  0  0  0  0  0
  -50.2759    1.0468  -11.1472 H   0  0  0  0  0  0  0  0  0  0  0  0
  -53.0264   -1.4661  -12.2014 H   0  0  0  0  0  0  0  0  0  0  0  0
  -53.4317    0.2327  -12.2543 H   0  0  0  0  0  0  0  0  0  0  0  0
  -52.7248   -0.4523  -10.8106 H   0  0  0  0  0  0  0  0  0  0  0  0
  -50.4880   -2.0592  -13.7099 H   0  0  0  0  0  0  0  0  0  0  0  0
  -51.4155    0.5211  -14.4051 H   0  0  0  0  0  0  0  0  0  0  0  0
  -51.4751    2.2898  -14.4559 H   0  0  0  0  0  0  0  0  0  0  0  0
  -50.1152   -1.0464  -19.0595 H   0  0  0  0  0  0  0  0  0  0  0  0
  -51.5898   -1.5436  -18.0702 H   0  0  0  0  0  0  0  0  0  0  0  0
  -54.5221    1.6109  -20.5881 H   0  0  0  0  0  0  0  0  0  0  0  0
  -53.0497    2.1886  -21.4629 H   0  0  0  0  0  0  0  0  0  0  0  0
  -51.7505    2.6999  -17.3046 H   0  0  0  0  0  0  0  0  0  0  0  0
  -47.7023   -1.9949  -16.2872 H   0  0  0  0  0  0  0  0  0  0  0  0
  -47.6979   -0.4680  -17.1365 H   0  0  0  0  0  0  0  0  0  0  0  0
  -48.3197   -1.9012  -17.9191 H   0  0  0  0  0  0  0  0  0  0  0  0
  -49.3829   -2.1010  -20.7522 H   0  0  0  0  0  0  0  0  0  0  0  0
  -51.2191   -2.0653  -25.2356 H   0  0  0  0  0  0  0  0  0  0  0  0
  -52.6997   -1.8210  -23.3167 H   0  0  0  0  0  0  0  0  0  0  0  0
  1  2  1  0  0  0  0
  1 37  1  1  0  0  0
  2 38  1  0  0  0  0
  2 39  1  0  0  0  0
  3  2  1  0  0  0  0
  3  4  1  0  0  0  0
  4 40  1  0  0  0  0
  4 41  1  0  0  0  0
  4 42  1  0  0  0  0
  5  3  1  0  0  0  0
  5 43  1  6  0  0  0
  6  5  1  0  0  0  0
  7  6  3  0  0  0  0
  8 10  1  0  0  0  0
  8  5  1  0  0  0  0
  9  8  1  0  0  0  0
 10  1  1  0  0  0  0
 11  1  1  0  0  0  0
 11 44  1  0  0  0  0
 11 45  1  0  0  0  0
 12 11  1  0  0  0  0
 13 12  1  0  0  0  0
 14 13  2  0  0  0  0
 14 25  1  0  0  0  0
 15 14  1  0  0  0  0
 15 46  1  0  0  0  0
 15 47  1  0  0  0  0
 16 18  1  0  0  0  0
 16 15  1  0  0  0  0
 17 16  2  0  0  0  0
 18 24  2  0  0  0  0
 19 20  1  0  0  0  0
 19 17  1  0  0  0  0
 20 22  1  0  0  0  0
 20 48  1  0  0  0  0
 20 49  1  0  0  0  0
 21 19  1  0  0  0  0
 22 23  1  0  0  0  0
 22 18  1  0  0  0  0
 24 13  1  0  0  0  0
 24 50  1  0  0  0  0
 26 25  1  0  0  0  0
 26 51  1  0  0  0  0
 26 52  1  0  0  0  0
 26 53  1  0  0  0  0
 27 17  1  0  0  0  0
 27 28  1  0  0  0  0
 29 30  1  0  0  0  0
 29 27  1  0  0  0  0
 30 54  1  0  0  0  0
 31 32  1  0  0  0  0
 31 30  2  0  0  0  0
 33 31  1  0  0  0  0
 34 33  1  0  0  0  0
 35 33  2  0  0  0  0
 35 36  1  0  0  0  0
 35 55  1  0  0  0  0
 36 29  2  0  0  0  0
 36 56  1  0  0  0  0
M  END
>  <REMARK>
 VINA RESULT:      -7.2      4.235      7.923
  6 active torsions:
  status: ('A' for Active; 'I' for Inactive)
    1  A    between atoms: O_2  and  C_3 
    2  A    between atoms: C_4  and  O_5 
    3  A    between atoms: O_5  and  C_6 
    4  A    between atoms: C_6  and  C_7 
    5  A    between atoms: C_24  and  N_25 
    6  A    between atoms: N_25  and  C_27 

>  <TORSDO>
F 6

$$$$
resistance_project/docking/8faf60323ce63d5a/P00533_T790M/docked/molecule_0001_out.pdbqt
 OpenBabel09142609523D

 56 59  0  0  1  0  0  0  0  0999 V2000
  -49.3620    2.6990  -13.8490 C   0  0  1  0  0  0  0  0  0  0  0  0
  -49.6310    3.9770  -13.0520 C   0  0  0  0  0  0  0  0  0  0  0  0
  -50.8750    3.7710  -12.3380 N   0  0  0  0  0  0  0  0  0  0  0  0
  -51.7130    4.9210  -12.1020 C   0  0  0  0  0  0  0  0  0  0  0  0
  -51.2850    2.4760  -11.8690 C   0  0  1  0  0  0  0  0  0  0  0  0
  -52.5070    2.3420  -11.1240 C   0  0  0  0  0  0  0  0  0  0  0  0
  -53.5090    2.2520  -10.5120 N   0  0  0  0  0  0  0  0  0  0  0  0
  -50.5250    1.4430  -12.1380 N   0  0  0  0  0  0  0  0  0  0  0  0
  -50.7830    0.5080  -11.8210 H   0  0  0  0  0  0  0  0  0  0  0  0
  -49.3550    1.6540  -12.8650 O   0  0  0  0  0  0  0  0  0  0  0  0
  -50.6120    2.4610  -14.6690 C   0  0  0  0  0  0  0  0  0  0  0  0
  -50.6120    1.1990  -15.3030 O   0  0  0  0  0  0  0  0  0  0  0  0
  -50.8470    1.0900  -16.6650 C   0  0  0  0  0  0  0  0  0  0  0  0
  -49.9560    0.3100  -17.4010 C   0  0  0  0  0  0  0  0  0  0  0  0
  -50.1710    0.1870  -18.7610 C   0  0  0  0  0  0  0  0  0  0  0  0
  -51.2310    0.8090  -19.3930 C   0  0  0  0  0  0  0  0  0  0  0  0
  -51.4370    0.6790  -20.7540 C   0  0  0  0  0  0  0  0  0  0  0  0
  -52.1170    1.5830  -18.6640 C   0  0  0  0  0  0  0  0  0  0  0  0
  -52.4790    1.2980  -21.3340 N   0  0  0  0  0  0  0  0  0  0  0  0
  -53.3410    2.0490  -20.6370 C   0  0  0  0  0  0  0  0  0  0  0  0
  -52.6170    1.1920  -22.3390 H   0  0  0  0  0  0  0  0  0  0  0  0
  -53.1290    2.1670  -19.3130 N   0  0  0  0  0  0  0  0  0  0  0  0
  -53.7790    2.7370  -18.7720 H   0  0  0  0  0  0  0  0  0  0  0  0
  -51.8940    1.6980  -17.3130 C   0  0  0  0  0  0  0  0  0  0  0  0
  -48.8890   -0.3170  -16.7700 O   0  0  0  0  0  0  0  0  0  0  0  0
  -48.9890   -1.6990  -16.4960 C   0  0  0  0  0  0  0  0  0  0  0  0
  -50.5080   -0.1240  -21.4750 N   0  0  0  0  0  0  0  0  0  0  0  0
  -49.5700   -0.3080  -21.1170 H   0  0  0  0  0  0  0  0  0  0  0  0
  -50.9530   -0.6590  -22.7270 C   0  0  0  0  0  0  0  0  0  0  0  0
  -51.1530   -2.0330  -22.8470 C   0  0  0  0  0  0  0  0  0  0  0  0
  -51.5830   -2.5830  -24.0450 C   0  0  0  0  0  0  0  0  0  0  0  0
  -51.8390   -4.2940  -24.2210 Cl  0  0  0  0  0  0  0  0  0  0  0  0
  -51.8090   -1.7380  -25.1150 C   0  0  0  0  0  0  0  0  0  0  0  0
  -52.3510   -2.3850  -26.6450 Cl  0  0  0  0  0  0  0  0  0  0  0  0
  -51.6170   -0.3620  -25.0220 C   0  0  0  0  0  0  0  0  0  0  0  0
  -51.1850    0.1820  -23.8140 C   0  0  0  0  0  0  0  0  0  0  0  0
  -48.4726    2.7436  -14.4422 H   0  0  0  0  0  0  0  0  0  0  0  0
  -49.7205    4.8124  -13.7146 H   0  0  0  0  0  0  0  0  0  0  0  0
  -48.8289    4.1829  -12.3744 H   0  0  0  0  0  0  0  0  0  0  0  0
  -51.2502    5.7911  -12.5188 H   0  0  0  0  0  0  0  0  0  0  0  0
  -51.8441    5.0566  -11.0488 H   0  0  0  0  0  0  0  0  0  0  0  0
  -52.6663    4.7684  -12.5634 H   0  0  0  0  0  0  0  0  0  0  0  0
  -51.8617    1.7314  -11.3611 H   0  0  0  0  0  0  0  0  0  0  0  0
  -51.4626    2.5200  -14.0226 H   0  0  0  0  0  0  0  0  0  0  0  0
  -50.6458    3.2085  -15.4338 H   0  0  0  0  0  0  0  0  0  0  0  0
  -49.2839    0.5475  -19.2385 H   0  0  0  0  0  0  0  0  0  0  0  0
  -50.4279   -0.8474  -18.8557 H   0  0  0  0  0  0  0  0  0  0  0  0
  -54.3151    1.6266  -20.7698 H   0  0  0  0  0  0  0  0  0  0  0  0
  -53.2166    3.0389  -21.0236 H   0  0  0  0  0  0  0  0  0  0  0  0
  -52.5473    2.2711  -16.7564 H   0  0  0  0  0  0  0  0  0  0  0  0
  -48.0949   -2.0322  -16.0117 H   0  0  0  0  0  0  0  0  0  0  0  0
  -49.1195   -2.2358  -17.4124 H   0  0  0  0  0  0  0  0  0  0  0  0
  -49.8283   -1.8760  -15.8563 H   0  0  0  0  0  0  0  0  0  0  0  0
  -50.9793   -2.6472  -22.0361 H   0  0  0  0  0  0  0  0  0  0  0  0
  -51.7923    0.2467  -25.8367 H   0  0  0  0  0  0  0  0  0  0  0  0
  -51.0380    1.1996  -23.7249 H   0  0  0  0  0  0  0  0  0  0  0  0
  1  2  1  0  0  0  0
  1 10  1  0  0  0  0
  1 37  1  6  0  0  0
  2  3  1  0  0  0  0
  2 38  1  0  0  0  0
  2 39  1  0  0  0  0
  3  4  1  0  0  0  0
  3  5  1  0  0  0  0
  4 40  1  0  0  0  0
  4 41  1  0  0  0  0
  4 42  1  0  0  0  0
  5  6  1  0  0  0  0
  5 43  1  1  0  0  0
  6  7  3  0  0  0  0
  8  5  1  0  0  0  0
  8  9  1  0  0  0  0
 10  8  1  0  0  0  0
 11  1  1  0  0  0  0
 11 44  1  0  0  0  0
 11 45  1  0  0  0  0
 12 11  1  0  0  0  0
 13 12  1  0  0  0  0
 14 25  1  0  0  0  0
 14 13  2  0  0  0  0
 15 14  1  0  0  0  0
 15 46  1  0  0  0  0
 15 47  1  0  0  0  0
 16 15  1  0  0  0  0
 16 18  1  0  0  0  0
 17 16  2  0  0  0  0
 18 24  2  0  0  0  0
 19 17  1  0  0  0  0
 19 20  1  0  0  0  0
 20 22  1  0  0  0  0
 20 48  1  0  0  0  0
 20 49  1  0  0  0  0
 21 19  1  0  0  0  0
 22 23  1  0  0  0  0
 22 18  1  0  0  0  0
 24 13  1  0  0  0  0
 24 50  1  0  0  0  0
 25 26  1  0  0  0  0
 26 51  1  0  0  0  0
 26 52  1  0  0  0  0
 26 53  1  0  0  0  0
 27 28  1  0  0  0  0
 27 17  1  0  0  0  0
 29 27  1  0  0  0  0
 30 29  1  0  0  0  0
 30 54  1  0  0  0  0
 31 30  2  0  0  0  0
 32 31  1  0  0  0  0
 33 35  2  0  0  0  0
 33 31  1  0  0  0  0
 34 33  1  0  0  0  0
 35 36  1  0  0  0  0
 35 55  1  0  0  0  0
 36 29  2  0  0  0  0
 36 56  1  0  0  0  0
M  END
>  <REMARK>
 VINA RESULT:      -7.0      4.475      8.932
  6 active torsions:
  status: ('A' for Active; 'I' for Inactive)
    1  A    between atoms: O_2  and  C_3 
    2  A    between atoms: C_4  and  O_5 
    3  A    between atoms: O_5  and  C_6 
    4  A    between atoms: C_6  and  C_7 
    5  A    between atoms: C_24  and  N_25 
    6  A    between atoms: N_25  and  C_27 

>  <TORSDO>
F 6

$$$$
resistance_project/docking/8faf60323ce63d5a/P00533_T790M/docked/molecule_0001_out.pdbqt
 OpenBabel09142609523D

 56 59  0  0  1  0  0  0  0  0999 V2000
  -50.7350    2.5860  -13.7800 C   0  0  1  0  0  0  0  0  0  0  0  0
  -50.4920    1.3440  -12.9220 C   0  0  0  0  0  0  0  0  0  0  0  0
  -49.0900    1.0060  -13.0620 N   0  0  0  0  0  0  0  0  0  0  0  0
  -48.7230   -0.3880  -12.9900 C   0  0  0  0  0  0  0  0  0  0  0  0
  -48.0770    2.0050  -13.2670 C   0  0  2  0  0  0  0  0  0  0  0  0
  -46.6960    1.6120  -13.3500 C   0  0  0  0  0  0  0  0  0  0  0  0
  -45.5710    1.2730  -13.4130 N   0  0  0  0  0  0  0  0  0  0  0  0
  -48.4450    3.2570  -13.3730 N   0  0  0  0  0  0  0  0  0  0  0  0
  -47.7540    3.9940  -13.5190 H   0  0  0  0  0  0  0  0  0  0  0  0
  -49.8030    3.5580  -13.2810 O   0  0  0  0  0  0  0  0  0  0  0  0
  -50.2340    2.2310  -15.1620 C   0  0  0  0  0  0  0  0  0  0  0  0
  -50.9140    1.1250  -15.7180 O   0  0  0  0  0  0  0  0  0  0  0  0
  -51.0950    1.0190  -17.0890 C   0  0  0  0  0  0  0  0  0  0  0  0
  -50.1080    0.3470  -17.8080 C   0  0  0  0  0  0  0  0  0  0  0  0
  -50.2680    0.2290  -19.1760 C   0  0  0  0  0  0  0  0  0  0  0  0
  -51.3650    0.7560  -19.8320 C   0  0  0  0  0  0  0  0  0  0  0  0
  -51.5160    0.6320  -21.2010 C   0  0  0  0  0  0  0  0  0  0  0  0
  -52.3460    1.4240  -19.1190 C   0  0  0  0  0  0  0  0  0  0  0  0
  -52.5960    1.1560  -21.8040 N   0  0  0  0  0  0  0  0  0  0  0  0
  -53.5490    1.8040  -21.1230 C   0  0  0  0  0  0  0  0  0  0  0  0
  -52.6920    1.0570  -22.8150 H   0  0  0  0  0  0  0  0  0  0  0  0
  -53.3900    1.9170  -19.7910 N   0  0  0  0  0  0  0  0  0  0  0  0
  -54.1110    2.4080  -19.2620 H   0  0  0  0  0  0  0  0  0  0  0  0
  -52.1770    1.5340  -17.7600 C   0  0  0  0  0  0  0  0  0  0  0  0
  -49.0040   -0.1830  -17.1530 O   0  0  0  0  0  0  0  0  0  0  0  0
  -48.2130   -1.1350  -17.8330 C   0  0  0  0  0  0  0  0  0  0  0  0
  -50.4890   -0.0600  -21.9040 N   0  0  0  0  0  0  0  0  0  0  0  0
  -49.5610    0.3450  -22.0320 H   0  0  0  0  0  0  0  0  0  0  0  0
  -50.8220   -1.3520  -22.4250 C   0  0  0  0  0  0  0  0  0  0  0  0
  -50.4280   -2.4910  -21.7240 C   0  0  0  0  0  0  0  0  0  0  0  0
  -50.7340   -3.7560  -22.2010 C   0  0  0  0  0  0  0  0  0  0  0  0
  -50.2520   -5.1910  -21.3460 Cl  0  0  0  0  0  0  0  0  0  0  0  0
  -51.4390   -3.8610  -23.3850 C   0  0  0  0  0  0  0  0  0  0  0  0
  -51.8480   -5.4350  -24.0250 Cl  0  0  0  0  0  0  0  0  0  0  0  0
  -51.8460   -2.7410  -24.1050 C   0  0  0  0  0  0  0  0  0  0  0  0
  -51.5330   -1.4730  -23.6180 C   0  0  0  0  0  0  0  0  0  0  0  0
  -51.7526    2.9167  -13.7753 H   0  0  0  0  0  0  0  0  0  0  0  0
  -51.1020    0.5345  -13.2647 H   0  0  0  0  0  0  0  0  0  0  0  0
  -50.7417    1.5298  -11.8983 H   0  0  0  0  0  0  0  0  0  0  0  0
  -47.6640   -0.4846  -13.1090 H   0  0  0  0  0  0  0  0  0  0  0  0
  -49.2201   -0.9284  -13.7683 H   0  0  0  0  0  0  0  0  0  0  0  0
  -49.0128   -0.7845  -12.0393 H   0  0  0  0  0  0  0  0  0  0  0  0
  -47.1172    2.4542  -13.4149 H   0  0  0  0  0  0  0  0  0  0  0  0
  -50.3713    3.0759  -15.8040 H   0  0  0  0  0  0  0  0  0  0  0  0
  -49.2010    1.9661  -15.0744 H   0  0  0  0  0  0  0  0  0  0  0  0
  -49.4067    0.6838  -19.6190 H   0  0  0  0  0  0  0  0  0  0  0  0
  -50.4182   -0.8237  -19.2954 H   0  0  0  0  0  0  0  0  0  0  0  0
  -54.4716    1.2897  -21.2937 H   0  0  0  0  0  0  0  0  0  0  0  0
  -53.5123    2.8087  -21.4893 H   0  0  0  0  0  0  0  0  0  0  0  0
  -52.9003    2.0291  -17.2153 H   0  0  0  0  0  0  0  0  0  0  0  0
  -47.4070   -1.4455  -17.2014 H   0  0  0  0  0  0  0  0  0  0  0  0
  -47.8181   -0.6979  -18.7263 H   0  0  0  0  0  0  0  0  0  0  0  0
  -48.8145   -1.9828  -18.0865 H   0  0  0  0  0  0  0  0  0  0  0  0
  -49.9032   -2.3912  -20.8410 H   0  0  0  0  0  0  0  0  0  0  0  0
  -52.3718   -2.8481  -24.9865 H   0  0  0  0  0  0  0  0  0  0  0  0
  -51.8254   -0.6301  -24.1367 H   0  0  0  0  0  0  0  0  0  0  0  0
  1 10  1  0  0  0  0
  1  2  1  0  0  0  0
  1 37  1  1  0  0  0
  2 38  1  0  0  0  0
  2 39  1  0  0  0  0
  3  4  1  0  0  0  0
  3  2  1  0  0  0  0
  4 40  1  0  0  0  0
  4 41  1  0  0  0  0
  4 42  1  0  0  0  0
  5  3  1  0  0  0  0
  5 43  1  6  0  0  0
  6  5  1  0  0  0  0
  7  6  3  0  0  0  0
  8 10  1  0  0  0  0
  8  5  1  0  0  0  0
  9  8  1  0  0  0  0
 11  1  1  0  0  0  0
 11 44  1  0  0  0  0
 11 45  1  0  0  0  0
 12 11  1  0  0  0  0
 13 12  1  0  0  0  0
 14 25  1  0  0  0  0
 14 13  2  0  0  0  0
 15 14  1  0  0  0  0
 15 46  1  0  0  0  0
 15 47  1  0  0  0  0
 16 15  1  0  0  0  0
 16 18  1  0  0  0  0
 17 16  2  0  0  0  0
 18 24  2  0  0  0  0
 19 17  1  0  0  0  0
 19 20  1  0  0  0  0
 20 22  1  0  0  0  0
 20 48  1  0  0  0  0
 20 49  1  0  0  0  0
 21 19  1  0  0  0  0
 22 23  1  0  0  0  0
 22 18  1  0  0  0  0
 24 13  1  0  0  0  0
 24 50  1  0  0  0  0
 26 25  1  0  0  0  0
 26 51  1  0  0  0  0
 26 52  1  0  0  0  0
 26 53  1  0  0  0  0
 27 17  1  0  0  0  0
 28 27  1  0  0  0  0
 29 27  1  0  0  0  0
 29 30  2  0  0  0  0
 30 54  1  0  0  0  0
 31 30  1  0  0  0  0
 31 32  1  0  0  0  0
 33 31  2  0  0  0  0
 34 33  1  0  0  0  0
 35 36  2  0  0  0  0
 35 33  1  0  0  0  0
 35 55  1  0  0  0  0
 36 29  1  0  0  0  0
 36 56  1  0  0  0  0
M  END
>  <REMARK>
 VINA RESULT:      -7.0      4.443      8.445
  6 active torsions:
  status: ('A' for Active; 'I' for Inactive)
    1  A    between atoms: O_2  and  C_3 
    2  A    between atoms: C_4  and  O_5 
    3  A    between atoms: O_5  and  C_6 
    4  A    between atoms: C_6  and  C_7 
    5  A    between atoms: C_24  and  N_25 
    6  A    between atoms: N_25  and  C_27 

>  <TORSDO>
F 6

$$$$
