resistance_project/docking/8faf60323ce63d5a/P00533_T790M/docked/molecule_0003_out.pdbqt
 OpenBabel09142609533D

 59 62  0  0  1  0  0  0  0  0999 V2000
  -49.2520   -0.9540  -17.1460 C   0  0  1  0  0  0  0  0  0  0  0  0
  -49.5270   -0.5870  -15.8480 C   0  0  0  0  0  0  0  0  0  0  0  0
  -50.4480    0.3940  -15.5170 C   0  0  0  0  0  0  0  0  0  0  0  0
  -51.1100    1.0230  -16.5440 C   0  0  0  0  0  0  0  0  0  0  0  0
  -52.0620    2.0130  -16.6050 C   0  0  0  0  0  0  0  0  0  0  0  0
  -52.3790    2.2660  -17.8860 N   0  0  0  0  0  0  0  0  0  0  0  0
  -53.0550    2.9520  -18.2210 H   0  0  0  0  0  0  0  0  0  0  0  0
  -51.6460    1.4560  -18.6250 N   0  0  0  0  0  0  0  0  0  0  0  0
  -50.8570    0.6790  -17.8590 C   0  0  0  0  0  0  0  0  0  0  0  0
  -49.9280   -0.3120  -18.1890 C   0  0  0  0  0  0  0  0  0  0  0  0
  -48.8780   -1.1990  -14.7740 O   0  0  0  0  0  0  0  0  0  0  0  0
  -49.6180   -1.6550  -13.6530 C   0  0  0  0  0  0  0  0  0  0  0  0
  -50.2750   -2.9930  -13.9530 C   0  0  0  0  0  0  0  0  0  0  0  0
  -51.4760   -3.2210  -13.0880 C   0  0  0  0  0  0  0  0  0  0  0  0
  -51.2850   -2.5390  -11.7990 N   0  0  0  0  0  0  0  0  0  0  0  0
  -51.0160   -3.6200  -10.8370 C   0  0  0  0  0  0  0  0  0  0  0  0
  -52.2870   -4.4480  -10.8330 C   0  0  0  0  0  0  0  0  0  0  0  0
  -53.3310   -3.4190  -11.2790 C   0  0  0  0  0  0  0  0  0  0  0  0
  -52.5750   -2.0870  -11.2820 C   0  0  0  0  0  0  0  0  0  0  0  0
  -48.3140   -1.9470  -17.3970 O   0  0  0  0  0  0  0  0  0  0  0  0
  -47.3190   -1.7650  -18.3950 C   0  0  0  0  0  0  0  0  0  0  0  0
  -51.7360    1.4590  -20.0860 C   0  0  0  0  0  0  0  0  0  0  0  0
  -53.1580    1.1200  -20.5440 C   0  0  2  0  0  0  0  0  0  0  0  0
  -53.6640   -0.4350  -19.8560 Cl  0  0  0  0  0  0  0  0  0  0  0  0
  -53.2430    1.0980  -22.0210 C   0  0  0  0  0  0  0  0  0  0  0  0
  -52.1640    0.6830  -22.7740 C   0  0  0  0  0  0  0  0  0  0  0  0
  -52.1530    0.6310  -24.1500 C   0  0  0  0  0  0  0  0  0  0  0  0
  -53.2880    1.0160  -24.8300 C   0  0  0  0  0  0  0  0  0  0  0  0
  -54.3770    1.4340  -24.0950 C   0  0  0  0  0  0  0  0  0  0  0  0
  -54.3790    1.4840  -22.7180 C   0  0  0  0  0  0  0  0  0  0  0  0
  -48.8655   -1.4890  -17.9882 H   0  0  0  0  0  0  0  0  0  0  0  0
  -50.6306    0.6438  -14.5325 H   0  0  0  0  0  0  0  0  0  0  0  0
  -52.4725    2.4911  -15.7877 H   0  0  0  0  0  0  0  0  0  0  0  0
  -49.7461   -0.5627  -19.1734 H   0  0  0  0  0  0  0  0  0  0  0  0
  -50.3750   -0.9370  -13.4158 H   0  0  0  0  0  0  0  0  0  0  0  0
  -48.9505   -1.7766  -12.8256 H   0  0  0  0  0  0  0  0  0  0  0  0
  -49.5665   -3.7754  -13.7774 H   0  0  0  0  0  0  0  0  0  0  0  0
  -50.5930   -2.9892  -14.9747 H   0  0  0  0  0  0  0  0  0  0  0  0
  -51.6023   -4.2704  -12.9216 H   0  0  0  0  0  0  0  0  0  0  0  0
  -52.3460   -2.8310  -13.5737 H   0  0  0  0  0  0  0  0  0  0  0  0
  -50.8215   -3.2206   -9.8636 H   0  0  0  0  0  0  0  0  0  0  0  0
  -50.1548   -4.1968  -11.1027 H   0  0  0  0  0  0  0  0  0  0  0  0
  -52.2234   -5.2631  -11.5232 H   0  0  0  0  0  0  0  0  0  0  0  0
  -52.5038   -4.9055   -9.8903 H   0  0  0  0  0  0  0  0  0  0  0  0
  -53.6959   -3.6496  -12.2581 H   0  0  0  0  0  0  0  0  0  0  0  0
  -54.1867   -3.4011  -10.6368 H   0  0  0  0  0  0  0  0  0  0  0  0
  -53.0345   -1.3694  -11.9292 H   0  0  0  0  0  0  0  0  0  0  0  0
  -52.5352   -1.5853  -10.3378 H   0  0  0  0  0  0  0  0  0  0  0  0
  -46.6950   -2.6331  -18.4390 H   0  0  0  0  0  0  0  0  0  0  0  0
  -46.7235   -0.9096  -18.1531 H   0  0  0  0  0  0  0  0  0  0  0  0
  -47.7893   -1.6152  -19.3444 H   0  0  0  0  0  0  0  0  0  0  0  0
  -51.4715    2.4291  -20.4518 H   0  0  0  0  0  0  0  0  0  0  0  0
  -51.0658    0.7198  -20.4725 H   0  0  0  0  0  0  0  0  0  0  0  0
  -53.8226    1.8805  -20.1905 H   0  0  0  0  0  0  0  0  0  0  0  0
  -51.3095    0.3926  -22.2734 H   0  0  0  0  0  0  0  0  0  0  0  0
  -51.3146    0.3113  -24.6599 H   0  0  0  0  0  0  0  0  0  0  0  0
  -53.3220    0.9921  -25.8612 H   0  0  0  0  0  0  0  0  0  0  0  0
  -55.2298    1.7227  -24.5993 H   0  0  0  0  0  0  0  0  0  0  0  0
  -55.2176    1.8056  -22.2098 H   0  0  0  0  0  0  0  0  0  0  0  0
  1  2  1  0  0  0  0
  1 31  1  1  0  0  0
  2  3  2  0  0  0  0
  2 11  1  0  0  0  0
  3 32  1  0  0  0  0
  4  3  1  0  0  0  0
  5  4  2  0  0  0  0
  5 33  1  0  0  0  0
  6  5  1  0  0  0  0
  7  6  1  0  0  0  0
  8  6  1  0  0  0  0
  8  9  1  0  0  0  0
  9  4  1  0  0  0  0
 10  9  2  0  0  0  0
 10  1  1  0  0  0  0
 10 34  1  0  0  0  0
 11 12  1  0  0  0  0
 12 35  1  0  0  0  0
 12 36  1  0  0  0  0
 13 12  1  0  0  0  0
 13 14  1  0  0  0  0
 13 37  1  0  0  0  0
 13 38  1  0  0  0  0
 14 15  1  0  0  0  0
 14 39  1  0  0  0  0
 14 40  1  0  0  0  0
 15 19  1  0  0  0  0
 15 16  1  0  0  0  0
 16 17  1  0  0  0  0
 16 41  1  0  0  0  0
 16 42  1  0  0  0  0
 17 43  1  0  0  0  0
 17 44  1  0  0  0  0
 18 17  1  0  0  0  0
 18 45  1  0  0  0  0
 18 46  1  0  0  0  0
 19 18  1  0  0  0  0
 19 47  1  0  0  0  0
 19 48  1  0  0  0  0
 20  1  1  0  0  0  0
 21 20  1  0  0  0  0
 21 49  1  0  0  0  0
 21 50  1  0  0  0  0
 21 51  1  0  0  0  0
 22  8  1  0  0  0  0
 22 52  1  0  0  0  0
 22 53  1  0  0  0  0
 23 22  1  0  0  0  0
 23 24  1  0  0  0  0
 23 54  1  1  0  0  0
 25 23  1  0  0  0  0
 26 25  2  0  0  0  0
 26 55  1  0  0  0  0
 27 26  1  0  0  0  0
 27 56  1  0  0  0  0
 28 27  2  0  0  0  0
 28 29  1  0  0  0  0
 28 57  1  0  0  0  0
 29 30  2  0  0  0  0
 29 58  1  0  0  0  0
 30 25  1  0  0  0  0
 30 59  1  0  0  0  0
M  END
>  <MODEL>
1

>  <REMARK>
 VINA RESULT:      -7.3      0.000      0.000
  9 active torsions:
  status: ('A' for Active; 'I' for Inactive)
    1  A    between atoms: O_2  and  C_3 
    2  A    between atoms: C_4  and  O_5 
    3  A    between atoms: O_5  and  C_6 
    4  A    between atoms: C_6  and  C_7 
    5  A    between atoms: C_7  and  C_8 
    6  A    between atoms: C_8  and  N_9 
    7  A    between atoms: N_19  and  C_20 
    8  A    between atoms: C_20  and  C_21 
    9  A    between atoms: C_21  and  C_23 

>  <TORSDO>
F 9

$$$$
resistance_project/docking/8faf60323ce63d5a/P00533_T790M/docked/molecule_0003_out.pdbqt
 OpenBabel09142609533D

 59 62  0  0  1  0  0  0  0  0999 V2000
  -48.9930   -0.4240  -18.5650 C   0  0  1  0  0  0  0  0  0  0  0  0
  -49.0700   -0.4680  -17.1910 C   0  0  0  0  0  0  0  0  0  0  0  0
  -50.0410    0.2020  -16.4640 C   0  0  0  0  0  0  0  0  0  0  0  0
  -50.9650    0.9430  -17.1610 C   0  0  0  0  0  0  0  0  0  0  0  0
  -52.0410    1.7180  -16.7980 C   0  0  0  0  0  0  0  0  0  0  0  0
  -52.6240    2.2330  -17.8930 N   0  0  0  0  0  0  0  0  0  0  0  0
  -53.4410    2.8430  -17.9170 H   0  0  0  0  0  0  0  0  0  0  0  0
  -51.9370    1.7960  -18.9310 N   0  0  0  0  0  0  0  0  0  0  0  0
  -50.9170    1.0080  -18.5420 C   0  0  0  0  0  0  0  0  0  0  0  0
  -49.9360    0.3310  -19.2720 C   0  0  0  0  0  0  0  0  0  0  0  0
  -48.1520   -1.2070  -16.4420 O   0  0  0  0  0  0  0  0  0  0  0  0
  -48.5580   -2.3880  -15.7710 C   0  0  0  0  0  0  0  0  0  0  0  0
  -48.2760   -2.2830  -14.2810 C   0  0  0  0  0  0  0  0  0  0  0  0
  -49.4870   -2.6210  -13.4670 C   0  0  0  0  0  0  0  0  0  0  0  0
  -50.6960   -2.3720  -14.2670 N   0  0  0  0  0  0  0  0  0  0  0  0
  -51.4580   -1.3750  -13.4980 C   0  0  0  0  0  0  0  0  0  0  0  0
  -51.7990   -2.0790  -12.1980 C   0  0  0  0  0  0  0  0  0  0  0  0
  -51.7620   -3.5500  -12.6210 C   0  0  0  0  0  0  0  0  0  0  0  0
  -51.6120   -3.5050  -14.1450 C   0  0  0  0  0  0  0  0  0  0  0  0
  -47.9890   -1.1230  -19.2220 O   0  0  0  0  0  0  0  0  0  0  0  0
  -47.6660   -0.8230  -20.5720 C   0  0  0  0  0  0  0  0  0  0  0  0
  -52.2980    2.1650  -20.3010 C   0  0  0  0  0  0  0  0  0  0  0  0
  -53.4580    1.3020  -20.8080 C   0  0  2  0  0  0  0  0  0  0  0  0
  -53.5160   -0.2280  -19.9120 Cl  0  0  0  0  0  0  0  0  0  0  0  0
  -53.3360    1.0610  -22.2630 C   0  0  0  0  0  0  0  0  0  0  0  0
  -54.3380    1.4600  -23.1210 C   0  0  0  0  0  0  0  0  0  0  0  0
  -54.3090    1.2770  -24.4860 C   0  0  0  0  0  0  0  0  0  0  0  0
  -53.2120    0.6560  -25.0410 C   0  0  0  0  0  0  0  0  0  0  0  0
  -52.1980    0.2500  -24.1990 C   0  0  0  0  0  0  0  0  0  0  0  0
  -52.2370    0.4370  -22.8340 C   0  0  0  0  0  0  0  0  0  0  0  0
  -48.6579   -0.6299  -19.5601 H   0  0  0  0  0  0  0  0  0  0  0  0
  -50.0693    0.1464  -15.4339 H   0  0  0  0  0  0  0  0  0  0  0  0
  -52.3543    1.8800  -15.8281 H   0  0  0  0  0  0  0  0  0  0  0  0
  -49.9078    0.3862  -20.3021 H   0  0  0  0  0  0  0  0  0  0  0  0
  -48.0212   -3.2222  -16.1722 H   0  0  0  0  0  0  0  0  0  0  0  0
  -49.6102   -2.5204  -15.9136 H   0  0  0  0  0  0  0  0  0  0  0  0
  -47.9732   -1.2821  -14.0543 H   0  0  0  0  0  0  0  0  0  0  0  0
  -47.5022   -2.9803  -14.0362 H   0  0  0  0  0  0  0  0  0  0  0  0
  -49.5083   -2.0113  -12.5880 H   0  0  0  0  0  0  0  0  0  0  0  0
  -49.4514   -3.6520  -13.1829 H   0  0  0  0  0  0  0  0  0  0  0  0
  -52.3482   -1.0937  -14.0207 H   0  0  0  0  0  0  0  0  0  0  0  0
  -50.9046   -0.4730  -13.3397 H   0  0  0  0  0  0  0  0  0  0  0  0
  -52.7699   -1.7989  -11.8460 H   0  0  0  0  0  0  0  0  0  0  0  0
  -51.1378   -1.8430  -11.3905 H   0  0  0  0  0  0  0  0  0  0  0  0
  -50.9297   -4.0518  -12.1733 H   0  0  0  0  0  0  0  0  0  0  0  0
  -52.6360   -4.0849  -12.3130 H   0  0  0  0  0  0  0  0  0  0  0  0
  -51.1841   -4.4069  -14.5303 H   0  0  0  0  0  0  0  0  0  0  0  0
  -52.5284   -3.4090  -14.6890 H   0  0  0  0  0  0  0  0  0  0  0  0
  -46.8734   -1.4628  -20.8997 H   0  0  0  0  0  0  0  0  0  0  0  0
  -47.3539    0.1978  -20.6457 H   0  0  0  0  0  0  0  0  0  0  0  0
  -48.5273   -0.9780  -21.1877 H   0  0  0  0  0  0  0  0  0  0  0  0
  -52.5908    3.1939  -20.3218 H   0  0  0  0  0  0  0  0  0  0  0  0
  -51.4500    2.0068  -20.9341 H   0  0  0  0  0  0  0  0  0  0  0  0
  -54.3751    1.8272  -20.6407 H   0  0  0  0  0  0  0  0  0  0  0  0
  -55.1639    1.9263  -22.7143 H   0  0  0  0  0  0  0  0  0  0  0  0
  -55.0906    1.5976  -25.0787 H   0  0  0  0  0  0  0  0  0  0  0  0
  -53.1505    0.4988  -26.0591 H   0  0  0  0  0  0  0  0  0  0  0  0
  -51.3730   -0.2147  -24.6094 H   0  0  0  0  0  0  0  0  0  0  0  0
  -51.4552    0.1155  -22.2420 H   0  0  0  0  0  0  0  0  0  0  0  0
  1  2  1  0  0  0  0
  1 31  1  6  0  0  0
  2  3  2  0  0  0  0
  2 11  1  0  0  0  0
  3 32  1  0  0  0  0
  4  5  2  0  0  0  0
  4  3  1  0  0  0  0
  5 33  1  0  0  0  0
  6  5  1  0  0  0  0
  7  6  1  0  0  0  0
  8  9  1  0  0  0  0
  8  6  1  0  0  0  0
  9  4  1  0  0  0  0
 10  1  1  0  0  0  0
 10  9  2  0  0  0  0
 10 34  1  0  0  0  0
 11 12  1  0  0  0  0
 12 13  1  0  0  0  0
 12 35  1  0  0  0  0
 12 36  1  0  0  0  0
 13 14  1  0  0  0  0
 13 37  1  0  0  0  0
 13 38  1  0  0  0  0
 14 39  1  0  0  0  0
 14 40  1  0  0  0  0
 15 19  1  0  0  0  0
 15 16  1  0  0  0  0
 15 14  1  0  0  0  0
 16 17  1  0  0  0  0
 16 41  1  0  0  0  0
 16 42  1  0  0  0  0
 17 43  1  0  0  0  0
 17 44  1  0  0  0  0
 18 17  1  0  0  0  0
 18 45  1  0  0  0  0
 18 46  1  0  0  0  0
 19 18  1  0  0  0  0
 19 47  1  0  0  0  0
 19 48  1  0  0  0  0
 20  1  1  0  0  0  0
 21 20  1  0  0  0  0
 21 49  1  0  0  0  0
 21 50  1  0  0  0  0
 21 51  1  0  0  0  0
 22  8  1  0  0  0  0
 22 52  1  0  0  0  0
 22 53  1  0  0  0  0
 23 22  1  0  0  0  0
 23 24  1  0  0  0  0
 23 54  1  1  0  0  0
 25 23  1  0  0  0  0
 26 25  2  0  0  0  0
 26 55  1  0  0  0  0
 27 26  1  0  0  0  0
 27 56  1  0  0  0  0
 28 27  2  0  0  0  0
 28 29  1  0  0  0  0
 28 57  1  0  0  0  0
 29 30  2  0  0  0  0
 29 58  1  0  0  0  0
 30 25  1  0  0  0  0
 30 59  1  0  0  0  0
M  END
>  <REMARK>
 VINA RESULT:      -7.2      1.167      1.882
  9 active torsions:
  status: ('A' for Active; 'I' for Inactive)
    1  A    between atoms: O_2  and  C_3 
    2  A    between atoms: C_4  and  O_5 
    3  A    between atoms: O_5  and  C_6 
    4  A    between atoms: C_6  and  C_7 
    5  A    between atoms: C_7  and  C_8 
    6  A    between atoms: C_8  and  N_9 
    7  A    between atoms: N_19  and  C_20 
    8  A    between atoms: C_20  and  C_21 
    9  A    between atoms: C_21  and  C_23 

>  <TORSDO>
F 9

$$$$
resistance_project/docking/8faf60323ce63d5a/P00533_T790M/docked/molecule_0003_out.pdbqt
 OpenBabel09142609533D

 59 62  0  0  1  0  0  0  0  0999 V2000
  -50.2930   -1.9810  -18.2270 C   0  0  2  0  0  0  0  0  0  0  0  0
  -49.9700   -1.1710  -17.1620 C   0  0  0  0  0  0  0  0  0  0  0  0
  -50.4740    0.1100  -17.0030 C   0  0  0  0  0  0  0  0  0  0  0  0
  -51.3360    0.5820  -17.9640 C   0  0  0  0  0  0  0  0  0  0  0  0
  -52.0170    1.7630  -18.1420 C   0  0  0  0  0  0  0  0  0  0  0  0
  -52.7410    1.7080  -19.2720 N   0  0  0  0  0  0  0  0  0  0  0  0
  -53.3400    2.4440  -19.6470 H   0  0  0  0  0  0  0  0  0  0  0  0
  -52.5290    0.5190  -19.8020 N   0  0  0  0  0  0  0  0  0  0  0  0
  -51.6820   -0.2050  -19.0470 C   0  0  0  0  0  0  0  0  0  0  0  0
  -51.1720   -1.4970  -19.2030 C   0  0  0  0  0  0  0  0  0  0  0  0
  -49.0980   -1.6090  -16.1630 O   0  0  0  0  0  0  0  0  0  0  0  0
  -49.5830   -1.9030  -14.8640 C   0  0  0  0  0  0  0  0  0  0  0  0
  -50.5220   -3.0980  -14.8990 C   0  0  0  0  0  0  0  0  0  0  0  0
  -51.4720   -3.0850  -13.7420 C   0  0  0  0  0  0  0  0  0  0  0  0
  -50.7700   -2.6050  -12.5410 N   0  0  0  0  0  0  0  0  0  0  0  0
  -50.4940   -3.8180  -11.7540 C   0  0  0  0  0  0  0  0  0  0  0  0
  -51.8660   -4.3630  -11.4040 C   0  0  0  0  0  0  0  0  0  0  0  0
  -52.7290   -3.0980  -11.4670 C   0  0  0  0  0  0  0  0  0  0  0  0
  -51.7210   -1.9570  -11.6390 C   0  0  0  0  0  0  0  0  0  0  0  0
  -49.7470   -3.2540  -18.3160 O   0  0  0  0  0  0  0  0  0  0  0  0
  -49.4990   -3.8470  -19.5830 C   0  0  0  0  0  0  0  0  0  0  0  0
  -53.1690    0.1120  -21.0540 C   0  0  0  0  0  0  0  0  0  0  0  0
  -52.8780    1.1240  -22.1680 C   0  0  2  0  0  0  0  0  0  0  0  0
  -54.3970    1.7800  -22.8050 Cl  0  0  0  0  0  0  0  0  0  0  0  0
  -52.0750    0.5030  -23.2440 C   0  0  0  0  0  0  0  0  0  0  0  0
  -51.4580   -0.7130  -23.0380 C   0  0  0  0  0  0  0  0  0  0  0  0
  -50.6930   -1.3640  -23.9800 C   0  0  0  0  0  0  0  0  0  0  0  0
  -50.5280   -0.7720  -25.2130 C   0  0  0  0  0  0  0  0  0  0  0  0
  -51.1380    0.4440  -25.4390 C   0  0  0  0  0  0  0  0  0  0  0  0
  -51.9010    1.0880  -24.4890 C   0  0  0  0  0  0  0  0  0  0  0  0
  -50.2974   -2.8478  -18.8543 H   0  0  0  0  0  0  0  0  0  0  0  0
  -50.2111    0.6898  -16.1908 H   0  0  0  0  0  0  0  0  0  0  0  0
  -51.9777    2.5718  -17.5023 H   0  0  0  0  0  0  0  0  0  0  0  0
  -51.4359   -2.0774  -20.0145 H   0  0  0  0  0  0  0  0  0  0  0  0
  -50.1106   -1.0527  -14.4852 H   0  0  0  0  0  0  0  0  0  0  0  0
  -48.7523   -2.1365  -14.2312 H   0  0  0  0  0  0  0  0  0  0  0  0
  -49.9423   -3.9966  -14.8625 H   0  0  0  0  0  0  0  0  0  0  0  0
  -51.0933   -3.0490  -15.8024 H   0  0  0  0  0  0  0  0  0  0  0  0
  -51.8388   -4.0753  -13.5697 H   0  0  0  0  0  0  0  0  0  0  0  0
  -52.2936   -2.4352  -13.9604 H   0  0  0  0  0  0  0  0  0  0  0  0
  -49.9451   -3.5772  -10.8676 H   0  0  0  0  0  0  0  0  0  0  0  0
  -49.8997   -4.5263  -12.2925 H   0  0  0  0  0  0  0  0  0  0  0  0
  -51.8763   -4.7936  -10.4245 H   0  0  0  0  0  0  0  0  0  0  0  0
  -52.1989   -5.1482  -12.0501 H   0  0  0  0  0  0  0  0  0  0  0  0
  -53.4003   -3.1387  -12.2992 H   0  0  0  0  0  0  0  0  0  0  0  0
  -53.3381   -2.9761  -10.5958 H   0  0  0  0  0  0  0  0  0  0  0  0
  -52.1686   -1.0935  -12.0850 H   0  0  0  0  0  0  0  0  0  0  0  0
  -51.3008   -1.5811  -10.7296 H   0  0  0  0  0  0  0  0  0  0  0  0
  -49.0799   -4.8217  -19.4447 H   0  0  0  0  0  0  0  0  0  0  0  0
  -48.8124   -3.2383  -20.1334 H   0  0  0  0  0  0  0  0  0  0  0  0
  -50.4180   -3.9276  -20.1251 H   0  0  0  0  0  0  0  0  0  0  0  0
  -52.7936   -0.8470  -21.3444 H   0  0  0  0  0  0  0  0  0  0  0  0
  -54.2268    0.0666  -20.8996 H   0  0  0  0  0  0  0  0  0  0  0  0
  -52.3058    1.9304  -21.7592 H   0  0  0  0  0  0  0  0  0  0  0  0
  -51.5774   -1.1646  -22.1178 H   0  0  0  0  0  0  0  0  0  0  0  0
  -50.2539   -2.2734  -23.7674 H   0  0  0  0  0  0  0  0  0  0  0  0
  -49.9632   -1.2262  -25.9476 H   0  0  0  0  0  0  0  0  0  0  0  0
  -51.0177    0.8919  -26.3609 H   0  0  0  0  0  0  0  0  0  0  0  0
  -52.3390    1.9977  -24.7024 H   0  0  0  0  0  0  0  0  0  0  0  0
  1  2  1  0  0  0  0
  1 31  1  6  0  0  0
  2  3  2  0  0  0  0
  2 11  1  0  0  0  0
  3 32  1  0  0  0  0
  4  3  1  0  0  0  0
  5  4  2  0  0  0  0
  5 33  1  0  0  0  0
  6  5  1  0  0  0  0
  7  6  1  0  0  0  0
  8  6  1  0  0  0  0
  8  9  1  0  0  0  0
  9  4  1  0  0  0  0
 10  9  2  0  0  0  0
 10  1  1  0  0  0  0
 10 34  1  0  0  0  0
 11 12  1  0  0  0  0
 12 35  1  0  0  0  0
 12 36  1  0  0  0  0
 13 12  1  0  0  0  0
 13 14  1  0  0  0  0
 13 37  1  0  0  0  0
 13 38  1  0  0  0  0
 14 15  1  0  0  0  0
 14 39  1  0  0  0  0
 14 40  1  0  0  0  0
 15 16  1  0  0  0  0
 15 19  1  0  0  0  0
 16 17  1  0  0  0  0
 16 41  1  0  0  0  0
 16 42  1  0  0  0  0
 17 43  1  0  0  0  0
 17 44  1  0  0  0  0
 18 17  1  0  0  0  0
 18 45  1  0  0  0  0
 18 46  1  0  0  0  0
 19 18  1  0  0  0  0
 19 47  1  0  0  0  0
 19 48  1  0  0  0  0
 20  1  1  0  0  0  0
 21 20  1  0  0  0  0
 21 49  1  0  0  0  0
 21 50  1  0  0  0  0
 21 51  1  0  0  0  0
 22  8  1  0  0  0  0
 22 52  1  0  0  0  0
 22 53  1  0  0  0  0
 23 22  1  0  0  0  0
 23 54  1  1  0  0  0
 24 23  1  0  0  0  0
 25 26  1  0  0  0  0
 25 23  1  0  0  0  0
 26 55  1  0  0  0  0
 27 26  2  0  0  0  0
 27 56  1  0  0  0  0
 28 27  1  0  0  0  0
 28 57  1  0  0  0  0
 29 28  2  0  0  0  0
 29 30  1  0  0  0  0
 29 58  1  0  0  0  0
 30 25  2  0  0  0  0
 30 59  1  0  0  0  0
M  END
>  <REMARK>
 VINA RESULT:      -7.0      1.623      2.001
  9 active torsions:
  status: ('A' for Active; 'I' for Inactive)
    1  A    between atoms: O_2  and  C_3 
    2  A    between atoms: C_4  and  O_5 
    3  A    between atoms: O_5  and  C_6 
    4  A    between atoms: C_6  and  C_7 
    5  A    between atoms: C_7  and  C_8 
    6  A    between atoms: C_8  and  N_9 
    7  A    between atoms: N_19  and  C_20 
    8  A    between atoms: C_20  and  C_21 
    9  A    between atoms: C_21  and  C_23 

>  <TORSDO>
F 9

$$$$
resistance_project/docking/8faf60323ce63d5a/P00533_T790M/docked/molecule_0003_out.pdbqt
 OpenBabel09142609533D

 59 62  0  0  1  0  0  0  0  0999 V2000
  -50.9740   -3.9360  -23.0580 C   0  0  1  0  0  0  0  0  0  0  0  0
  -50.0640   -4.7530  -22.4270 C   0  0  0  0  0  0  0  0  0  0  0  0
  -49.7370   -4.6310  -21.0860 C   0  0  0  0  0  0  0  0  0  0  0  0
  -50.3590   -3.6410  -20.3640 C   0  0  0  0  0  0  0  0  0  0  0  0
  -50.2950   -3.2280  -19.0540 C   0  0  0  0  0  0  0  0  0  0  0  0
  -51.1280   -2.1920  -18.8600 N   0  0  0  0  0  0  0  0  0  0  0  0
  -51.2800   -1.6890  -17.9850 H   0  0  0  0  0  0  0  0  0  0  0  0
  -51.7110   -1.9500  -20.0180 N   0  0  0  0  0  0  0  0  0  0  0  0
  -51.2790   -2.8030  -20.9660 C   0  0  0  0  0  0  0  0  0  0  0  0
  -51.6060   -2.9290  -22.3190 C   0  0  0  0  0  0  0  0  0  0  0  0
  -49.4070   -5.7710  -23.1220 O   0  0  0  0  0  0  0  0  0  0  0  0
  -48.0080   -5.7050  -23.3410 C   0  0  0  0  0  0  0  0  0  0  0  0
  -47.6800   -5.9680  -24.8020 C   0  0  0  0  0  0  0  0  0  0  0  0
  -46.9670   -4.8060  -25.4220 C   0  0  0  0  0  0  0  0  0  0  0  0
  -47.9270   -4.0030  -26.1960 N   0  0  0  0  0  0  0  0  0  0  0  0
  -47.1700   -3.5390  -27.3700 C   0  0  0  0  0  0  0  0  0  0  0  0
  -46.0700   -2.6690  -26.7930 C   0  0  0  0  0  0  0  0  0  0  0  0
  -46.6890   -2.2230  -25.4650 C   0  0  0  0  0  0  0  0  0  0  0  0
  -48.1380   -2.7150  -25.5360 C   0  0  0  0  0  0  0  0  0  0  0  0
  -51.2480   -4.1210  -24.4070 O   0  0  0  0  0  0  0  0  0  0  0  0
  -51.7880   -3.0630  -25.1860 C   0  0  0  0  0  0  0  0  0  0  0  0
  -52.6920   -0.8750  -20.1740 C   0  0  0  0  0  0  0  0  0  0  0  0
  -52.0270    0.3930  -20.7210 C   0  0  2  0  0  0  0  0  0  0  0  0
  -52.2640    1.7400  -19.5910 Cl  0  0  0  0  0  0  0  0  0  0  0  0
  -52.5560    0.7260  -22.0620 C   0  0  0  0  0  0  0  0  0  0  0  0
  -51.7830    0.5180  -23.1850 C   0  0  0  0  0  0  0  0  0  0  0  0
  -52.1930    0.7980  -24.4700 C   0  0  0  0  0  0  0  0  0  0  0  0
  -53.4540    1.3190  -24.6580 C   0  0  0  0  0  0  0  0  0  0  0  0
  -54.2420    1.5330  -23.5470 C   0  0  0  0  0  0  0  0  0  0  0  0
  -53.8230    1.2510  -22.2640 C   0  0  0  0  0  0  0  0  0  0  0  0
  -51.6098   -3.5537  -23.8291 H   0  0  0  0  0  0  0  0  0  0  0  0
  -49.0499   -5.2620  -20.6447 H   0  0  0  0  0  0  0  0  0  0  0  0
  -49.6961   -3.6510  -18.3278 H   0  0  0  0  0  0  0  0  0  0  0  0
  -52.2932   -2.2981  -22.7603 H   0  0  0  0  0  0  0  0  0  0  0  0
  -47.6558   -4.7312  -23.0717 H   0  0  0  0  0  0  0  0  0  0  0  0
  -47.5303   -6.4514  -22.7413 H   0  0  0  0  0  0  0  0  0  0  0  0
  -47.0555   -6.8344  -24.8677 H   0  0  0  0  0  0  0  0  0  0  0  0
  -48.5981   -6.1194  -25.3303 H   0  0  0  0  0  0  0  0  0  0  0  0
  -46.5332   -4.2013  -24.6532 H   0  0  0  0  0  0  0  0  0  0  0  0
  -46.1945   -5.1639  -26.0701 H   0  0  0  0  0  0  0  0  0  0  0  0
  -46.7554   -4.3680  -27.9045 H   0  0  0  0  0  0  0  0  0  0  0  0
  -47.7848   -3.0087  -28.0669 H   0  0  0  0  0  0  0  0  0  0  0  0
  -45.8621   -1.8322  -27.4266 H   0  0  0  0  0  0  0  0  0  0  0  0
  -45.1309   -3.1707  -26.6870 H   0  0  0  0  0  0  0  0  0  0  0  0
  -46.6550   -1.1577  -25.3702 H   0  0  0  0  0  0  0  0  0  0  0  0
  -46.1657   -2.6162  -24.6186 H   0  0  0  0  0  0  0  0  0  0  0  0
  -48.5676   -2.8313  -24.5630 H   0  0  0  0  0  0  0  0  0  0  0  0
  -48.8177   -2.0555  -26.0339 H   0  0  0  0  0  0  0  0  0  0  0  0
  -51.9283   -3.3970  -26.1928 H   0  0  0  0  0  0  0  0  0  0  0  0
  -51.1132   -2.2327  -25.1764 H   0  0  0  0  0  0  0  0  0  0  0  0
  -52.7293   -2.7623  -24.7755 H   0  0  0  0  0  0  0  0  0  0  0  0
  -53.4550   -1.1922  -20.8538 H   0  0  0  0  0  0  0  0  0  0  0  0
  -53.1149   -0.6547  -19.2161 H   0  0  0  0  0  0  0  0  0  0  0  0
  -50.9766    0.2147  -20.8203 H   0  0  0  0  0  0  0  0  0  0  0  0
  -50.8367    0.1275  -23.0543 H   0  0  0  0  0  0  0  0  0  0  0  0
  -51.5696    0.6214  -25.2733 H   0  0  0  0  0  0  0  0  0  0  0  0
  -53.7995    1.5430  -25.6043 H   0  0  0  0  0  0  0  0  0  0  0  0
  -55.1884    1.9219  -23.6818 H   0  0  0  0  0  0  0  0  0  0  0  0
  -54.4469    1.4291  -21.4615 H   0  0  0  0  0  0  0  0  0  0  0  0
  1  2  1  0  0  0  0
  1 10  1  0  0  0  0
  1 31  1  1  0  0  0
  2  3  2  0  0  0  0
  3  4  1  0  0  0  0
  3 32  1  0  0  0  0
  4  5  2  0  0  0  0
  5  6  1  0  0  0  0
  5 33  1  0  0  0  0
  6  7  1  0  0  0  0
  8  6  1  0  0  0  0
  9  4  1  0  0  0  0
  9  8  1  0  0  0  0
 10  9  2  0  0  0  0
 10 34  1  0  0  0  0
 11  2  1  0  0  0  0
 12 11  1  0  0  0  0
 12 35  1  0  0  0  0
 12 36  1  0  0  0  0
 13 12  1  0  0  0  0
 13 37  1  0  0  0  0
 13 38  1  0  0  0  0
 14 13  1  0  0  0  0
 14 39  1  0  0  0  0
 14 40  1  0  0  0  0
 15 19  1  0  0  0  0
 15 14  1  0  0  0  0
 16 17  1  0  0  0  0
 16 15  1  0  0  0  0
 16 41  1  0  0  0  0
 16 42  1  0  0  0  0
 17 18  1  0  0  0  0
 17 43  1  0  0  0  0
 17 44  1  0  0  0  0
 18 45  1  0  0  0  0
 18 46  1  0  0  0  0
 19 18  1  0  0  0  0
 19 47  1  0  0  0  0
 19 48  1  0  0  0  0
 20  1  1  0  0  0  0
 21 20  1  0  0  0  0
 21 49  1  0  0  0  0
 21 50  1  0  0  0  0
 21 51  1  0  0  0  0
 22  8  1  0  0  0  0
 22 52  1  0  0  0  0
 22 53  1  0  0  0  0
 23 22  1  0  0  0  0
 23 24  1  0  0  0  0
 23 54  1  6  0  0  0
 25 23  1  0  0  0  0
 26 25  2  0  0  0  0
 26 55  1  0  0  0  0
 27 26  1  0  0  0  0
 27 56  1  0  0  0  0
 28 27  2  0  0  0  0
 28 29  1  0  0  0  0
 28 57  1  0  0  0  0
 29 30  2  0  0  0  0
 29 58  1  0  0  0  0
 30 25  1  0  0  0  0
 30 59  1  0  0  0  0
M  END
>  <REMARK>
 VINA RESULT:      -6.8      5.031      8.823
  9 active torsions:
  status: ('A' for Active; 'I' for Inactive)
    1  A    between atoms: O_2  and  C_3 
    2  A    between atoms: C_4  and  O_5 
    3  A    between atoms: O_5  and  C_6 
    4  A    between atoms: C_6  and  C_7 
    5  A    between atoms: C_7  and  C_8 
    6  A    between atoms: C_8  and  N_9 
    7  A    between atoms: N_19  and  C_20 
    8  A    between atoms: C_20  and  C_21 
    9  A    between atoms: C_21  and  C_23 

>  <TORSDO>
F 9

$$$$
resistance_project/docking/8faf60323ce63d5a/P00533_T790M/docked/molecule_0003_out.pdbqt
 OpenBabel09142609533D

 59 62  0  0  1  0  0  0  0  0999 V2000
  -51.3080    1.1030  -19.6210 C   0  0  1  0  0  0  0  0  0  0  0  0
  -50.4180    0.1480  -20.0570 C   0  0  0  0  0  0  0  0  0  0  0  0
  -49.6870   -0.6550  -19.1970 C   0  0  0  0  0  0  0  0  0  0  0  0
  -49.8690   -0.4780  -17.8460 C   0  0  0  0  0  0  0  0  0  0  0  0
  -49.3390   -1.0690  -16.7230 C   0  0  0  0  0  0  0  0  0  0  0  0
  -49.8680   -0.5130  -15.6200 N   0  0  0  0  0  0  0  0  0  0  0  0
  -49.6550   -0.7580  -14.6540 H   0  0  0  0  0  0  0  0  0  0  0  0
  -50.7170    0.4100  -16.0300 N   0  0  0  0  0  0  0  0  0  0  0  0
  -50.7550    0.4720  -17.3740 C   0  0  0  0  0  0  0  0  0  0  0  0
  -51.4920    1.2810  -18.2450 C   0  0  0  0  0  0  0  0  0  0  0  0
  -50.2010   -0.0660  -21.4200 O   0  0  0  0  0  0  0  0  0  0  0  0
  -49.9210   -1.3680  -21.9070 C   0  0  0  0  0  0  0  0  0  0  0  0
  -51.1070   -1.9180  -22.6820 C   0  0  0  0  0  0  0  0  0  0  0  0
  -51.9390   -0.8180  -23.2670 C   0  0  0  0  0  0  0  0  0  0  0  0
  -52.0980   -1.0440  -24.7120 N   0  0  0  0  0  0  0  0  0  0  0  0
  -51.0070   -0.2780  -25.3360 C   0  0  0  0  0  0  0  0  0  0  0  0
  -51.3020    1.1650  -24.9730 C   0  0  0  0  0  0  0  0  0  0  0  0
  -52.8170    1.1270  -24.7490 C   0  0  0  0  0  0  0  0  0  0  0  0
  -53.2350   -0.2730  -25.2100 C   0  0  0  0  0  0  0  0  0  0  0  0
  -52.0040    1.8700  -20.5460 O   0  0  0  0  0  0  0  0  0  0  0  0
  -53.3710    1.6030  -20.8230 C   0  0  0  0  0  0  0  0  0  0  0  0
  -51.4830    1.2220  -15.0830 C   0  0  0  0  0  0  0  0  0  0  0  0
  -50.6870    2.4620  -14.6620 C   0  0  2  0  0  0  0  0  0  0  0  0
  -49.7700    2.1220  -13.1820 Cl  0  0  0  0  0  0  0  0  0  0  0  0
  -51.5840    3.6230  -14.4750 C   0  0  0  0  0  0  0  0  0  0  0  0
  -52.1950    4.2120  -15.5620 C   0  0  0  0  0  0  0  0  0  0  0  0
  -53.0430    5.2940  -15.4830 C   0  0  0  0  0  0  0  0  0  0  0  0
  -53.3070    5.8310  -14.2420 C   0  0  0  0  0  0  0  0  0  0  0  0
  -52.7070    5.2560  -13.1420 C   0  0  0  0  0  0  0  0  0  0  0  0
  -51.8580    4.1730  -13.2320 C   0  0  0  0  0  0  0  0  0  0  0  0
  -52.0542    1.8698  -19.6328 H   0  0  0  0  0  0  0  0  0  0  0  0
  -49.0280   -1.3622  -19.5583 H   0  0  0  0  0  0  0  0  0  0  0  0
  -48.6388   -1.8271  -16.7268 H   0  0  0  0  0  0  0  0  0  0  0  0
  -52.1516    1.9878  -17.8840 H   0  0  0  0  0  0  0  0  0  0  0  0
  -49.0686   -1.3259  -22.5524 H   0  0  0  0  0  0  0  0  0  0  0  0
  -49.7251   -2.0118  -21.0751 H   0  0  0  0  0  0  0  0  0  0  0  0
  -50.7462   -2.5399  -23.4744 H   0  0  0  0  0  0  0  0  0  0  0  0
  -51.7188   -2.4783  -22.0062 H   0  0  0  0  0  0  0  0  0  0  0  0
  -52.9010   -0.8098  -22.7986 H   0  0  0  0  0  0  0  0  0  0  0  0
  -51.4562    0.1226  -23.1025 H   0  0  0  0  0  0  0  0  0  0  0  0
  -50.0590   -0.5809  -24.9430 H   0  0  0  0  0  0  0  0  0  0  0  0
  -50.9560   -0.4297  -26.3940 H   0  0  0  0  0  0  0  0  0  0  0  0
  -51.0425    1.8286  -25.7712 H   0  0  0  0  0  0  0  0  0  0  0  0
  -50.7477    1.5224  -24.1304 H   0  0  0  0  0  0  0  0  0  0  0  0
  -53.0506    1.2706  -23.7147 H   0  0  0  0  0  0  0  0  0  0  0  0
  -53.3278    1.9015  -25.2820 H   0  0  0  0  0  0  0  0  0  0  0  0
  -53.3214   -0.3328  -26.2748 H   0  0  0  0  0  0  0  0  0  0  0  0
  -54.1926   -0.5990  -24.8611 H   0  0  0  0  0  0  0  0  0  0  0  0
  -53.7280    2.2951  -21.5568 H   0  0  0  0  0  0  0  0  0  0  0  0
  -53.9439    1.7078  -19.9254 H   0  0  0  0  0  0  0  0  0  0  0  0
  -53.4711    0.6050  -21.1955 H   0  0  0  0  0  0  0  0  0  0  0  0
  -51.7033    0.6353  -14.2157 H   0  0  0  0  0  0  0  0  0  0  0  0
  -52.3881    1.5398  -15.5571 H   0  0  0  0  0  0  0  0  0  0  0  0
  -49.9955    2.7071  -15.4409 H   0  0  0  0  0  0  0  0  0  0  0  0
  -52.0042    3.8160  -16.4957 H   0  0  0  0  0  0  0  0  0  0  0  0
  -53.4706    5.6932  -16.3332 H   0  0  0  0  0  0  0  0  0  0  0  0
  -53.9370    6.6419  -14.1386 H   0  0  0  0  0  0  0  0  0  0  0  0
  -52.9018    5.6537  -12.2098 H   0  0  0  0  0  0  0  0  0  0  0  0
  -51.4301    3.7752  -12.3813 H   0  0  0  0  0  0  0  0  0  0  0  0
  1 10  1  0  0  0  0
  1 31  1  6  0  0  0
  2  1  1  0  0  0  0
  2  3  2  0  0  0  0
  3  4  1  0  0  0  0
  3 32  1  0  0  0  0
  4  9  1  0  0  0  0
  4  5  2  0  0  0  0
  5  6  1  0  0  0  0
  5 33  1  0  0  0  0
  6  7  1  0  0  0  0
  8  6  1  0  0  0  0
  8 22  1  0  0  0  0
  9  8  1  0  0  0  0
 10  9  2  0  0  0  0
 10 34  1  0  0  0  0
 11  2  1  0  0  0  0
 12 11  1  0  0  0  0
 12 35  1  0  0  0  0
 12 36  1  0  0  0  0
 13 12  1  0  0  0  0
 13 37  1  0  0  0  0
 13 38  1  0  0  0  0
 14 13  1  0  0  0  0
 14 39  1  0  0  0  0
 14 40  1  0  0  0  0
 15 14  1  0  0  0  0
 16 17  1  0  0  0  0
 16 15  1  0  0  0  0
 16 41  1  0  0  0  0
 16 42  1  0  0  0  0
 17 18  1  0  0  0  0
 17 43  1  0  0  0  0
 17 44  1  0  0  0  0
 18 45  1  0  0  0  0
 18 46  1  0  0  0  0
 19 18  1  0  0  0  0
 19 15  1  0  0  0  0
 19 47  1  0  0  0  0
 19 48  1  0  0  0  0
 20  1  1  0  0  0  0
 21 20  1  0  0  0  0
 21 49  1  0  0  0  0
 21 50  1  0  0  0  0
 21 51  1  0  0  0  0
 22 23  1  0  0  0  0
 22 52  1  0  0  0  0
 22 53  1  0  0  0  0
 23 25  1  0  0  0  0
 23 24  1  0  0  0  0
 23 54  1  6  0  0  0
 25 30  2  0  0  0  0
 26 27  2  0  0  0  0
 26 25  1  0  0  0  0
 26 55  1  0  0  0  0
 27 28  1  0  0  0  0
 27 56  1  0  0  0  0
 28 29  2  0  0  0  0
 28 57  1  0  0  0  0
 29 58  1  0  0  0  0
 30 29  1  0  0  0  0
 30 59  1  0  0  0  0
M  END
>  <REMARK>
 VINA RESULT:      -6.8      3.752      8.831
  9 active torsions:
  status: ('A' for Active; 'I' for Inactive)
    1  A    between atoms: O_2  and  C_3 
    2  A    between atoms: C_4  and  O_5 
    3  A    between atoms: O_5  and  C_6 
    4  A    between atoms: C_6  and  C_7 
    5  A    between atoms: C_7  and  C_8 
    6  A    between atoms: C_8  and  N_9 
    7  A    between atoms: N_19  and  C_20 
    8  A    between atoms: C_20  and  C_21 
    9  A    between atoms: C_21  and  C_23 

>  <TORSDO>
F 9

$$$$
resistance_project/docking/8faf60323ce63d5a/P00533_T790M/docked/molecule_0003_out.pdbqt
 OpenBabel09142609533D

 59 62  0  0  1  0  0  0  0  0999 V2000
  -50.1680   -0.6420  -18.0160 C   0  0  2  0  0  0  0  0  0  0  0  0
  -50.7530    0.2920  -18.8410 C   0  0  0  0  0  0  0  0  0  0  0  0
  -51.4260    1.4060  -18.3670 C   0  0  0  0  0  0  0  0  0  0  0  0
  -51.5070    1.5740  -17.0060 C   0  0  0  0  0  0  0  0  0  0  0  0
  -52.0740    2.5250  -16.1900 C   0  0  0  0  0  0  0  0  0  0  0  0
  -51.8590    2.2100  -14.9020 N   0  0  0  0  0  0  0  0  0  0  0  0
  -52.1690    2.7390  -14.0870 H   0  0  0  0  0  0  0  0  0  0  0  0
  -51.1700    1.0850  -14.8950 N   0  0  0  0  0  0  0  0  0  0  0  0
  -50.9290    0.6560  -16.1480 C   0  0  0  0  0  0  0  0  0  0  0  0
  -50.2500   -0.4670  -16.6300 C   0  0  0  0  0  0  0  0  0  0  0  0
  -50.6970    0.1610  -20.2300 O   0  0  0  0  0  0  0  0  0  0  0  0
  -51.8110   -0.3400  -20.9500 C   0  0  0  0  0  0  0  0  0  0  0  0
  -51.3650   -1.3460  -21.9990 C   0  0  0  0  0  0  0  0  0  0  0  0
  -51.0920   -0.6840  -23.3140 C   0  0  0  0  0  0  0  0  0  0  0  0
  -52.3230   -0.0390  -23.7990 N   0  0  0  0  0  0  0  0  0  0  0  0
  -52.6670   -0.7650  -25.0330 C   0  0  0  0  0  0  0  0  0  0  0  0
  -51.5040   -0.4960  -25.9690 C   0  0  0  0  0  0  0  0  0  0  0  0
  -50.9650    0.8300  -25.4230 C   0  0  0  0  0  0  0  0  0  0  0  0
  -52.0020    1.2630  -24.3810 C   0  0  0  0  0  0  0  0  0  0  0  0
  -49.5100   -1.7330  -18.5670 O   0  0  0  0  0  0  0  0  0  0  0  0
  -50.0970   -3.0260  -18.5270 C   0  0  0  0  0  0  0  0  0  0  0  0
  -50.7570    0.4460  -13.6440 C   0  0  0  0  0  0  0  0  0  0  0  0
  -51.9450    0.3060  -12.6870 C   0  0  2  0  0  0  0  0  0  0  0  0
  -51.6680    1.2780  -11.2280 Cl  0  0  0  0  0  0  0  0  0  0  0  0
  -52.1760   -1.1140  -12.3430 C   0  0  0  0  0  0  0  0  0  0  0  0
  -51.5810   -2.1140  -13.0810 C   0  0  0  0  0  0  0  0  0  0  0  0
  -51.7400   -3.4600  -12.8340 C   0  0  0  0  0  0  0  0  0  0  0  0
  -52.5430   -3.8430  -11.7820 C   0  0  0  0  0  0  0  0  0  0  0  0
  -53.1470   -2.8570  -11.0310 C   0  0  0  0  0  0  0  0  0  0  0  0
  -52.9830   -1.5130  -11.2870 C   0  0  0  0  0  0  0  0  0  0  0  0
  -49.6783   -1.5453  -17.7174 H   0  0  0  0  0  0  0  0  0  0  0  0
  -51.8523    2.0870  -19.0147 H   0  0  0  0  0  0  0  0  0  0  0  0
  -52.5884    3.3572  -16.5186 H   0  0  0  0  0  0  0  0  0  0  0  0
  -49.8218   -1.1471  -15.9826 H   0  0  0  0  0  0  0  0  0  0  0  0
  -52.4834   -0.8179  -20.2686 H   0  0  0  0  0  0  0  0  0  0  0  0
  -52.2981    0.4762  -21.4414 H   0  0  0  0  0  0  0  0  0  0  0  0
  -50.4718   -1.8282  -21.6605 H   0  0  0  0  0  0  0  0  0  0  0  0
  -52.1526   -2.0568  -22.1384 H   0  0  0  0  0  0  0  0  0  0  0  0
  -50.3267    0.0536  -23.1907 H   0  0  0  0  0  0  0  0  0  0  0  0
  -50.7678   -1.4164  -24.0234 H   0  0  0  0  0  0  0  0  0  0  0  0
  -52.7631   -1.8132  -24.8408 H   0  0  0  0  0  0  0  0  0  0  0  0
  -53.6022   -0.4474  -25.4445 H   0  0  0  0  0  0  0  0  0  0  0  0
  -50.7680   -1.2704  -25.9089 H   0  0  0  0  0  0  0  0  0  0  0  0
  -51.7781   -0.4604  -27.0027 H   0  0  0  0  0  0  0  0  0  0  0  0
  -50.8867    1.5572  -26.2040 H   0  0  0  0  0  0  0  0  0  0  0  0
  -49.9846    0.7309  -25.0059 H   0  0  0  0  0  0  0  0  0  0  0  0
  -52.8572    1.7183  -24.8351 H   0  0  0  0  0  0  0  0  0  0  0  0
  -51.6642    2.0011  -23.6838 H   0  0  0  0  0  0  0  0  0  0  0  0
  -49.4430   -3.7293  -18.9987 H   0  0  0  0  0  0  0  0  0  0  0  0
  -51.0340   -3.0084  -19.0433 H   0  0  0  0  0  0  0  0  0  0  0  0
  -50.2561   -3.3141  -17.5089 H   0  0  0  0  0  0  0  0  0  0  0  0
  -50.0000    1.0422  -13.1787 H   0  0  0  0  0  0  0  0  0  0  0  0
  -50.3783   -0.5298  -13.8659 H   0  0  0  0  0  0  0  0  0  0  0  0
  -52.8249    0.6702  -13.1748 H   0  0  0  0  0  0  0  0  0  0  0  0
  -50.9768   -1.8366  -13.8703 H   0  0  0  0  0  0  0  0  0  0  0  0
  -51.2689   -4.1645  -13.4229 H   0  0  0  0  0  0  0  0  0  0  0  0
  -52.6884   -4.8408  -11.5621 H   0  0  0  0  0  0  0  0  0  0  0  0
  -53.7491   -3.1383  -10.2415 H   0  0  0  0  0  0  0  0  0  0  0  0
  -53.4561   -0.8094  -10.6986 H   0  0  0  0  0  0  0  0  0  0  0  0
  1 10  1  0  0  0  0
  1 31  1  1  0  0  0
  2  3  2  0  0  0  0
  2  1  1  0  0  0  0
  3  4  1  0  0  0  0
  3 32  1  0  0  0  0
  4  5  2  0  0  0  0
  4  9  1  0  0  0  0
  5  6  1  0  0  0  0
  5 33  1  0  0  0  0
  6  8  1  0  0  0  0
  6  7  1  0  0  0  0
  8 22  1  0  0  0  0
  9  8  1  0  0  0  0
 10  9  2  0  0  0  0
 10 34  1  0  0  0  0
 11  2  1  0  0  0  0
 12 11  1  0  0  0  0
 12 35  1  0  0  0  0
 12 36  1  0  0  0  0
 13 12  1  0  0  0  0
 13 37  1  0  0  0  0
 13 38  1  0  0  0  0
 14 13  1  0  0  0  0
 14 39  1  0  0  0  0
 14 40  1  0  0  0  0
 15 14  1  0  0  0  0
 16 15  1  0  0  0  0
 16 41  1  0  0  0  0
 16 42  1  0  0  0  0
 17 18  1  0  0  0  0
 17 16  1  0  0  0  0
 17 43  1  0  0  0  0
 17 44  1  0  0  0  0
 18 19  1  0  0  0  0
 18 45  1  0  0  0  0
 18 46  1  0  0  0  0
 19 15  1  0  0  0  0
 19 47  1  0  0  0  0
 19 48  1  0  0  0  0
 20 21  1  0  0  0  0
 20  1  1  0  0  0  0
 21 49  1  0  0  0  0
 21 50  1  0  0  0  0
 21 51  1  0  0  0  0
 22 23  1  0  0  0  0
 22 52  1  0  0  0  0
 22 53  1  0  0  0  0
 23 25  1  0  0  0  0
 23 24  1  0  0  0  0
 23 54  1  6  0  0  0
 25 30  2  0  0  0  0
 26 27  2  0  0  0  0
 26 25  1  0  0  0  0
 26 55  1  0  0  0  0
 27 28  1  0  0  0  0
 27 56  1  0  0  0  0
 28 29  2  0  0  0  0
 28 57  1  0  0  0  0
 29 58  1  0  0  0  0
 30 29  1  0  0  0  0
 30 59  1  0  0  0  0
M  END
>  <REMARK>
 VINA RESULT:      -6.7      2.667      9.131
  9 active torsions:
  status: ('A' for Active; 'I' for Inactive)
    1  A    between atoms: O_2  and  C_3 
    2  A    between atoms: C_4  and  O_5 
    3  A    between atoms: O_5  and  C_6 
    4  A    between atoms: C_6  and  C_7 
    5  A    between atoms: C_7  and  C_8 
    6  A    between atoms: C_8  and  N_9 
    7  A    between atoms: N_19  and  C_20 
    8  A    between atoms: C_20  and  C_21 
    9  A    between atoms: C_21  and  C_23 

>  <TORSDO>
F 9

$$$$
resistance_project/docking/8faf60323ce63d5a/P00533_T790M/docked/molecule_0003_out.pdbqt
 OpenBabel09142609533D

 59 62  0  0  1  0  0  0  0  0999 V2000
  -49.9680    0.2230  -17.1630 C   0  0  2  0  0  0  0  0  0  0  0  0
  -50.8320    1.0890  -16.5320 C   0  0  0  0  0  0  0  0  0  0  0  0
  -51.8240    1.7900  -17.1970 C   0  0  0  0  0  0  0  0  0  0  0  0
  -51.9400    1.6030  -18.5540 C   0  0  0  0  0  0  0  0  0  0  0  0
  -52.7760    2.1080  -19.5230 C   0  0  0  0  0  0  0  0  0  0  0  0
  -52.4570    1.5860  -20.7190 N   0  0  0  0  0  0  0  0  0  0  0  0
  -52.9120    1.7850  -21.6090 H   0  0  0  0  0  0  0  0  0  0  0  0
  -51.4430    0.7670  -20.5190 N   0  0  0  0  0  0  0  0  0  0  0  0
  -51.0890    0.7400  -19.2200 C   0  0  0  0  0  0  0  0  0  0  0  0
  -50.0890    0.0340  -18.5450 C   0  0  0  0  0  0  0  0  0  0  0  0
  -50.7510    1.3100  -15.1550 O   0  0  0  0  0  0  0  0  0  0  0  0
  -50.0180    2.4120  -14.6470 C   0  0  0  0  0  0  0  0  0  0  0  0
  -50.7270    3.0210  -13.4480 C   0  0  0  0  0  0  0  0  0  0  0  0
  -51.9060    3.8440  -13.8660 C   0  0  0  0  0  0  0  0  0  0  0  0
  -51.8400    5.1580  -13.2070 N   0  0  0  0  0  0  0  0  0  0  0  0
  -53.2190    5.6710  -13.2500 C   0  0  0  0  0  0  0  0  0  0  0  0
  -53.5240    5.8160  -14.7290 C   0  0  0  0  0  0  0  0  0  0  0  0
  -52.1220    5.9870  -15.3210 C   0  0  0  0  0  0  0  0  0  0  0  0
  -51.2070    6.1280  -14.1000 C   0  0  0  0  0  0  0  0  0  0  0  0
  -48.9990   -0.4440  -16.4260 O   0  0  0  0  0  0  0  0  0  0  0  0
  -49.2400   -1.7540  -15.9350 C   0  0  0  0  0  0  0  0  0  0  0  0
  -50.8330    0.0170  -21.6190 C   0  0  0  0  0  0  0  0  0  0  0  0
  -51.5910   -1.2900  -21.8710 C   0  0  2  0  0  0  0  0  0  0  0  0
  -50.8680   -2.6050  -20.9250 Cl  0  0  0  0  0  0  0  0  0  0  0  0
  -51.6040   -1.6190  -23.3130 C   0  0  0  0  0  0  0  0  0  0  0  0
  -51.2190   -0.6780  -24.2450 C   0  0  0  0  0  0  0  0  0  0  0  0
  -51.1990   -0.8960  -25.6040 C   0  0  0  0  0  0  0  0  0  0  0  0
  -51.5870   -2.1310  -26.0760 C   0  0  0  0  0  0  0  0  0  0  0  0
  -51.9750   -3.0860  -25.1610 C   0  0  0  0  0  0  0  0  0  0  0  0
  -51.9920   -2.8580  -23.8010 C   0  0  0  0  0  0  0  0  0  0  0  0
  -49.1575   -0.4662  -17.2774 H   0  0  0  0  0  0  0  0  0  0  0  0
  -52.4549    2.4311  -16.6910 H   0  0  0  0  0  0  0  0  0  0  0  0
  -53.5352    2.7868  -19.3559 H   0  0  0  0  0  0  0  0  0  0  0  0
  -49.4584   -0.6077  -19.0505 H   0  0  0  0  0  0  0  0  0  0  0  0
  -49.9224    3.1534  -15.4126 H   0  0  0  0  0  0  0  0  0  0  0  0
  -49.0519    2.0704  -14.3389 H   0  0  0  0  0  0  0  0  0  0  0  0
  -50.0385    3.6447  -12.9171 H   0  0  0  0  0  0  0  0  0  0  0  0
  -51.0779    2.2244  -12.8258 H   0  0  0  0  0  0  0  0  0  0  0  0
  -52.8089    3.3459  -13.5804 H   0  0  0  0  0  0  0  0  0  0  0  0
  -51.8936    3.9746  -14.9279 H   0  0  0  0  0  0  0  0  0  0  0  0
  -53.8942    4.9798  -12.7905 H   0  0  0  0  0  0  0  0  0  0  0  0
  -53.3266    6.5942  -12.7198 H   0  0  0  0  0  0  0  0  0  0  0  0
  -54.0063    4.9424  -15.1151 H   0  0  0  0  0  0  0  0  0  0  0  0
  -54.1925    6.6197  -14.9575 H   0  0  0  0  0  0  0  0  0  0  0  0
  -52.0739    6.8632  -15.9333 H   0  0  0  0  0  0  0  0  0  0  0  0
  -51.8414    5.1668  -15.9482 H   0  0  0  0  0  0  0  0  0  0  0  0
  -51.2321    7.1182  -13.6952 H   0  0  0  0  0  0  0  0  0  0  0  0
  -50.1674    5.9601  -14.2895 H   0  0  0  0  0  0  0  0  0  0  0  0
  -48.3816   -2.0963  -15.3957 H   0  0  0  0  0  0  0  0  0  0  0  0
  -49.4316   -2.4130  -16.7560 H   0  0  0  0  0  0  0  0  0  0  0  0
  -50.0885   -1.7401  -15.2833 H   0  0  0  0  0  0  0  0  0  0  0  0
  -50.8576    0.6138  -22.5068 H   0  0  0  0  0  0  0  0  0  0  0  0
  -49.8226   -0.2172  -21.3561 H   0  0  0  0  0  0  0  0  0  0  0  0
  -52.6059   -1.1645  -21.5563 H   0  0  0  0  0  0  0  0  0  0  0  0
  -50.9269    0.2501  -23.9010 H   0  0  0  0  0  0  0  0  0  0  0  0
  -50.9005   -0.1521  -26.2540 H   0  0  0  0  0  0  0  0  0  0  0  0
  -51.5871   -2.3355  -27.0875 H   0  0  0  0  0  0  0  0  0  0  0  0
  -52.2657   -4.0130  -25.5091 H   0  0  0  0  0  0  0  0  0  0  0  0
  -52.2908   -3.6027  -23.1521 H   0  0  0  0  0  0  0  0  0  0  0  0
  1  2  1  0  0  0  0
  1 20  1  0  0  0  0
  1 31  1  6  0  0  0
  2 11  1  0  0  0  0
  3  2  2  0  0  0  0
  3 32  1  0  0  0  0
  4  3  1  0  0  0  0
  5  4  2  0  0  0  0
  5 33  1  0  0  0  0
  6  8  1  0  0  0  0
  6  5  1  0  0  0  0
  7  6  1  0  0  0  0
  8  9  1  0  0  0  0
  9  4  1  0  0  0  0
  9 10  2  0  0  0  0
 10  1  1  0  0  0  0
 10 34  1  0  0  0  0
 11 12  1  0  0  0  0
 12 13  1  0  0  0  0
 12 35  1  0  0  0  0
 12 36  1  0  0  0  0
 13 37  1  0  0  0  0
 13 38  1  0  0  0  0
 14 13  1  0  0  0  0
 14 15  1  0  0  0  0
 14 39  1  0  0  0  0
 14 40  1  0  0  0  0
 16 15  1  0  0  0  0
 16 41  1  0  0  0  0
 16 42  1  0  0  0  0
 17 16  1  0  0  0  0
 17 43  1  0  0  0  0
 17 44  1  0  0  0  0
 18 17  1  0  0  0  0
 18 19  1  0  0  0  0
 18 45  1  0  0  0  0
 18 46  1  0  0  0  0
 19 15  1  0  0  0  0
 19 47  1  0  0  0  0
 19 48  1  0  0  0  0
 20 21  1  0  0  0  0
 21 49  1  0  0  0  0
 21 50  1  0  0  0  0
 21 51  1  0  0  0  0
 22  8  1  0  0  0  0
 22 52  1  0  0  0  0
 22 53  1  0  0  0  0
 23 22  1  0  0  0  0
 23 24  1  0  0  0  0
 23 54  1  1  0  0  0
 25 23  1  0  0  0  0
 26 25  2  0  0  0  0
 26 55  1  0  0  0  0
 27 26  1  0  0  0  0
 27 56  1  0  0  0  0
 28 27  2  0  0  0  0
 28 29  1  0  0  0  0
 28 57  1  0  0  0  0
 29 30  2  0  0  0  0
 29 58  1  0  0  0  0
 30 25  1  0  0  0  0
 30 59  1  0  0  0  0
M  END
>  <REMARK>
 VINA RESULT:      -6.6      3.427      5.097
  9 active torsions:
  status: ('A' for Active; 'I' for Inactive)
    1  A    between atoms: O_2  and  C_3 
    2  A    between atoms: C_4  and  O_5 
    3  A    between atoms: O_5  and  C_6 
    4  A    between atoms: C_6  and  C_7 
    5  A    between atoms: C_7  and  C_8 
    6  A    between atoms: C_8  and  N_9 
    7  A    between atoms: N_19  and  C_20 
    8  A    between atoms: C_20  and  C_21 
    9  A    between atoms: C_21  and  C_23 

>  <TORSDO>
F 9

$$$$
resistance_project/docking/8faf60323ce63d5a/P00533_T790M/docked/molecule_0003_out.pdbqt
 OpenBabel09142609533D

 59 62  0  0  1  0  0  0  0  0999 V2000
  -51.4290    1.8440  -16.0600 C   0  0  1  0  0  0  0  0  0  0  0  0
  -50.6500    0.7910  -15.6370 C   0  0  0  0  0  0  0  0  0  0  0  0
  -50.0870   -0.1320  -16.5030 C   0  0  0  0  0  0  0  0  0  0  0  0
  -50.3270    0.0230  -17.8470 C   0  0  0  0  0  0  0  0  0  0  0  0
  -49.9500   -0.6710  -18.9730 C   0  0  0  0  0  0  0  0  0  0  0  0
  -50.4670   -0.0850  -20.0660 N   0  0  0  0  0  0  0  0  0  0  0  0
  -50.3490   -0.3880  -21.0320 H   0  0  0  0  0  0  0  0  0  0  0  0
  -51.1570    0.9590  -19.6470 N   0  0  0  0  0  0  0  0  0  0  0  0
  -51.1050    1.0700  -18.3070 C   0  0  0  0  0  0  0  0  0  0  0  0
  -51.6710    1.9990  -17.4290 C   0  0  0  0  0  0  0  0  0  0  0  0
  -50.3800    0.5950  -14.2800 O   0  0  0  0  0  0  0  0  0  0  0  0
  -49.0420    0.5340  -13.8150 C   0  0  0  0  0  0  0  0  0  0  0  0
  -48.9370   -0.3710  -12.5990 C   0  0  0  0  0  0  0  0  0  0  0  0
  -50.0860   -1.3290  -12.5250 C   0  0  0  0  0  0  0  0  0  0  0  0
  -49.5750   -2.7080  -12.5780 N   0  0  0  0  0  0  0  0  0  0  0  0
  -49.7920   -3.1380  -13.9690 C   0  0  0  0  0  0  0  0  0  0  0  0
  -51.2990   -3.1060  -14.1440 C   0  0  0  0  0  0  0  0  0  0  0  0
  -51.7840   -3.2880  -12.7030 C   0  0  0  0  0  0  0  0  0  0  0  0
  -50.5130   -3.6080  -11.9100 C   0  0  0  0  0  0  0  0  0  0  0  0
  -51.9580    2.7280  -15.1290 O   0  0  0  0  0  0  0  0  0  0  0  0
  -52.3330    4.0430  -15.5140 C   0  0  0  0  0  0  0  0  0  0  0  0
  -51.8630    1.8370  -20.5820 C   0  0  0  0  0  0  0  0  0  0  0  0
  -53.2000    1.2200  -21.0050 C   0  0  2  0  0  0  0  0  0  0  0  0
  -53.5080   -0.2590  -20.0740 Cl  0  0  0  0  0  0  0  0  0  0  0  0
  -53.2140    0.9450  -22.4580 C   0  0  0  0  0  0  0  0  0  0  0  0
  -52.1780    0.2480  -23.0450 C   0  0  0  0  0  0  0  0  0  0  0  0
  -52.1080   -0.0530  -24.3870 C   0  0  0  0  0  0  0  0  0  0  0  0
  -53.1330    0.3640  -25.2070 C   0  0  0  0  0  0  0  0  0  0  0  0
  -54.1790    1.0620  -24.6400 C   0  0  0  0  0  0  0  0  0  0  0  0
  -54.2400    1.3590  -23.2950 C   0  0  0  0  0  0  0  0  0  0  0  0
  -52.0311    2.7274  -16.0164 H   0  0  0  0  0  0  0  0  0  0  0  0
  -49.5071   -0.9096  -16.1507 H   0  0  0  0  0  0  0  0  0  0  0  0
  -49.3580   -1.5163  -18.9777 H   0  0  0  0  0  0  0  0  0  0  0  0
  -52.2508    2.7769  -17.7808 H   0  0  0  0  0  0  0  0  0  0  0  0
  -48.7172    1.5183  -13.5494 H   0  0  0  0  0  0  0  0  0  0  0  0
  -48.4248    0.1370  -14.5937 H   0  0  0  0  0  0  0  0  0  0  0  0
  -48.9309    0.2331  -11.7158 H   0  0  0  0  0  0  0  0  0  0  0  0
  -48.0330   -0.9376  -12.6801 H   0  0  0  0  0  0  0  0  0  0  0  0
  -50.7454   -1.1604  -13.3506 H   0  0  0  0  0  0  0  0  0  0  0  0
  -50.6184   -1.1794  -11.6090 H   0  0  0  0  0  0  0  0  0  0  0  0
  -49.3173   -2.4647  -14.6518 H   0  0  0  0  0  0  0  0  0  0  0  0
  -49.3793   -4.1054  -14.1656 H   0  0  0  0  0  0  0  0  0  0  0  0
  -51.6355   -3.9040  -14.7723 H   0  0  0  0  0  0  0  0  0  0  0  0
  -51.6623   -2.2166  -14.6151 H   0  0  0  0  0  0  0  0  0  0  0  0
  -52.4838   -4.0949  -12.6382 H   0  0  0  0  0  0  0  0  0  0  0  0
  -52.2895   -2.4216  -12.3306 H   0  0  0  0  0  0  0  0  0  0  0  0
  -50.2252   -4.6332  -12.0150 H   0  0  0  0  0  0  0  0  0  0  0  0
  -50.5930   -3.4763  -10.8512 H   0  0  0  0  0  0  0  0  0  0  0  0
  -52.7163    4.5679  -14.6640 H   0  0  0  0  0  0  0  0  0  0  0  0
  -53.0872    3.9915  -16.2713 H   0  0  0  0  0  0  0  0  0  0  0  0
  -51.4780    4.5601  -15.8967 H   0  0  0  0  0  0  0  0  0  0  0  0
  -52.0457    2.7790  -20.1085 H   0  0  0  0  0  0  0  0  0  0  0  0
  -51.2557    1.9691  -21.4530 H   0  0  0  0  0  0  0  0  0  0  0  0
  -53.9827    1.9198  -20.7987 H   0  0  0  0  0  0  0  0  0  0  0  0
  -51.4051   -0.0684  -22.4388 H   0  0  0  0  0  0  0  0  0  0  0  0
  -51.3064   -0.5787  -24.7693 H   0  0  0  0  0  0  0  0  0  0  0  0
  -53.1189    0.1597  -26.2185 H   0  0  0  0  0  0  0  0  0  0  0  0
  -54.9502    1.3759  -25.2497 H   0  0  0  0  0  0  0  0  0  0  0  0
  -55.0421    1.8848  -22.9141 H   0  0  0  0  0  0  0  0  0  0  0  0
  1  2  1  0  0  0  0
  1 20  1  0  0  0  0
  1 31  1  6  0  0  0
  2 11  1  0  0  0  0
  3  2  2  0  0  0  0
  3 32  1  0  0  0  0
  4  3  1  0  0  0  0
  5  4  2  0  0  0  0
  5 33  1  0  0  0  0
  6  8  1  0  0  0  0
  6  5  1  0  0  0  0
  7  6  1  0  0  0  0
  8  9  1  0  0  0  0
  9  4  1  0  0  0  0
  9 10  2  0  0  0  0
 10  1  1  0  0  0  0
 10 34  1  0  0  0  0
 11 12  1  0  0  0  0
 12 13  1  0  0  0  0
 12 35  1  0  0  0  0
 12 36  1  0  0  0  0
 13 14  1  0  0  0  0
 13 37  1  0  0  0  0
 13 38  1  0  0  0  0
 14 39  1  0  0  0  0
 14 40  1  0  0  0  0
 15 14  1  0  0  0  0
 15 19  1  0  0  0  0
 16 15  1  0  0  0  0
 16 41  1  0  0  0  0
 16 42  1  0  0  0  0
 17 16  1  0  0  0  0
 17 18  1  0  0  0  0
 17 43  1  0  0  0  0
 17 44  1  0  0  0  0
 18 19  1  0  0  0  0
 18 45  1  0  0  0  0
 18 46  1  0  0  0  0
 19 47  1  0  0  0  0
 19 48  1  0  0  0  0
 21 20  1  0  0  0  0
 21 49  1  0  0  0  0
 21 50  1  0  0  0  0
 21 51  1  0  0  0  0
 22  8  1  0  0  0  0
 22 52  1  0  0  0  0
 22 53  1  0  0  0  0
 23 22  1  0  0  0  0
 23 24  1  0  0  0  0
 23 54  1  1  0  0  0
 25 23  1  0  0  0  0
 26 25  1  0  0  0  0
 26 55  1  0  0  0  0
 27 26  2  0  0  0  0
 27 56  1  0  0  0  0
 28 29  2  0  0  0  0
 28 27  1  0  0  0  0
 28 57  1  0  0  0  0
 29 30  1  0  0  0  0
 29 58  1  0  0  0  0
 30 25  2  0  0  0  0
 30 59  1  0  0  0  0
M  END
>  <REMARK>
 VINA RESULT:      -6.5      1.573      2.888
  9 active torsions:
  status: ('A' for Active; 'I' for Inactive)
    1  A    between atoms: O_2  and  C_3 
    2  A    between atoms: C_4  and  O_5 
    3  A    between atoms: O_5  and  C_6 
    4  A    between atoms: C_6  and  C_7 
    5  A    between atoms: C_7  and  C_8 
    6  A    between atoms: C_8  and  N_9 
    7  A    between atoms: N_19  and  C_20 
    8  A    between atoms: C_20  and  C_21 
    9  A    between atoms: C_21  and  C_23 

>  <TORSDO>
F 9

$$$$
resistance_project/docking/8faf60323ce63d5a/P00533_T790M/docked/molecule_0003_out.pdbqt
 OpenBabel09142609533D

 59 62  0  0  1  0  0  0  0  0999 V2000
  -49.7670   -3.9730  -21.5480 C   0  0  2  0  0  0  0  0  0  0  0  0
  -50.1380   -4.7900  -22.5910 C   0  0  0  0  0  0  0  0  0  0  0  0
  -50.9140   -4.3580  -23.6540 C   0  0  0  0  0  0  0  0  0  0  0  0
  -51.3260   -3.0470  -23.6530 C   0  0  0  0  0  0  0  0  0  0  0  0
  -52.0820   -2.2810  -24.5100 C   0  0  0  0  0  0  0  0  0  0  0  0
  -52.1870   -1.0300  -24.0320 N   0  0  0  0  0  0  0  0  0  0  0  0
  -52.6910   -0.2550  -24.4630 H   0  0  0  0  0  0  0  0  0  0  0  0
  -51.5140   -0.9980  -22.8980 N   0  0  0  0  0  0  0  0  0  0  0  0
  -50.9710   -2.1980  -22.6220 C   0  0  0  0  0  0  0  0  0  0  0  0
  -50.1870   -2.6380  -21.5510 C   0  0  0  0  0  0  0  0  0  0  0  0
  -49.7430   -6.1290  -22.6320 O   0  0  0  0  0  0  0  0  0  0  0  0
  -49.0690   -6.6450  -23.7680 C   0  0  0  0  0  0  0  0  0  0  0  0
  -47.6400   -6.1270  -23.8250 C   0  0  0  0  0  0  0  0  0  0  0  0
  -47.4240   -5.2420  -25.0140 C   0  0  0  0  0  0  0  0  0  0  0  0
  -46.4510   -4.1930  -24.6690 N   0  0  0  0  0  0  0  0  0  0  0  0
  -47.2650   -3.0710  -24.1760 C   0  0  0  0  0  0  0  0  0  0  0  0
  -48.1100   -2.6620  -25.3680 C   0  0  0  0  0  0  0  0  0  0  0  0
  -47.2500   -3.1460  -26.5390 C   0  0  0  0  0  0  0  0  0  0  0  0
  -45.9320   -3.5810  -25.8910 C   0  0  0  0  0  0  0  0  0  0  0  0
  -48.9860   -4.4810  -20.5170 O   0  0  0  0  0  0  0  0  0  0  0  0
  -47.5740   -4.3340  -20.5410 C   0  0  0  0  0  0  0  0  0  0  0  0
  -51.4150    0.2250  -22.0990 C   0  0  0  0  0  0  0  0  0  0  0  0
  -52.5400    0.2890  -21.0610 C   0  0  2  0  0  0  0  0  0  0  0  0
  -53.8050    1.4080  -21.6050 Cl  0  0  0  0  0  0  0  0  0  0  0  0
  -52.0120    0.6870  -19.7380 C   0  0  0  0  0  0  0  0  0  0  0  0
  -50.9430    0.0150  -19.1850 C   0  0  0  0  0  0  0  0  0  0  0  0
  -50.3870    0.3160  -17.9620 C   0  0  0  0  0  0  0  0  0  0  0  0
  -50.9250    1.3550  -17.2340 C   0  0  0  0  0  0  0  0  0  0  0  0
  -51.9940    2.0410  -17.7710 C   0  0  0  0  0  0  0  0  0  0  0  0
  -52.5440    1.7310  -18.9960 C   0  0  0  0  0  0  0  0  0  0  0  0
  -49.3656   -3.6881  -20.5980 H   0  0  0  0  0  0  0  0  0  0  0  0
  -51.1738   -4.9986  -24.4203 H   0  0  0  0  0  0  0  0  0  0  0  0
  -52.5053   -2.6173  -25.3890 H   0  0  0  0  0  0  0  0  0  0  0  0
  -49.9258   -1.9972  -20.7854 H   0  0  0  0  0  0  0  0  0  0  0  0
  -49.0536   -7.7134  -23.7123 H   0  0  0  0  0  0  0  0  0  0  0  0
  -49.5861   -6.3272  -24.6492 H   0  0  0  0  0  0  0  0  0  0  0  0
  -47.4366   -5.5692  -22.9348 H   0  0  0  0  0  0  0  0  0  0  0  0
  -46.9816   -6.9664  -23.9072 H   0  0  0  0  0  0  0  0  0  0  0  0
  -47.0480   -5.8241  -25.8293 H   0  0  0  0  0  0  0  0  0  0  0  0
  -48.3517   -4.7910  -25.2985 H   0  0  0  0  0  0  0  0  0  0  0  0
  -47.8853   -3.3829  -23.3619 H   0  0  0  0  0  0  0  0  0  0  0  0
  -46.6658   -2.2652  -23.8064 H   0  0  0  0  0  0  0  0  0  0  0  0
  -49.0626   -3.1491  -25.3563 H   0  0  0  0  0  0  0  0  0  0  0  0
  -48.3390   -1.6173  -25.4000 H   0  0  0  0  0  0  0  0  0  0  0  0
  -47.7172   -3.9701  -27.0364 H   0  0  0  0  0  0  0  0  0  0  0  0
  -47.1085   -2.3882  -27.2811 H   0  0  0  0  0  0  0  0  0  0  0  0
  -45.2968   -2.7462  -25.6801 H   0  0  0  0  0  0  0  0  0  0  0  0
  -45.3183   -4.2181  -26.4930 H   0  0  0  0  0  0  0  0  0  0  0  0
  -47.1533   -4.7871  -19.6677 H   0  0  0  0  0  0  0  0  0  0  0  0
  -47.3240   -3.2938  -20.5588 H   0  0  0  0  0  0  0  0  0  0  0  0
  -47.1806   -4.8104  -21.4146 H   0  0  0  0  0  0  0  0  0  0  0  0
  -51.4864    1.0738  -22.7465 H   0  0  0  0  0  0  0  0  0  0  0  0
  -50.4754    0.2252  -21.5870 H   0  0  0  0  0  0  0  0  0  0  0  0
  -52.9698   -0.6856  -20.9592 H   0  0  0  0  0  0  0  0  0  0  0  0
  -50.5327   -0.7645  -19.7227 H   0  0  0  0  0  0  0  0  0  0  0  0
  -49.5860   -0.2239  -17.5989 H   0  0  0  0  0  0  0  0  0  0  0  0
  -50.5386    1.6126  -16.3124 H   0  0  0  0  0  0  0  0  0  0  0  0
  -52.4002    2.8213  -17.2315 H   0  0  0  0  0  0  0  0  0  0  0  0
  -53.3452    2.2713  -19.3583 H   0  0  0  0  0  0  0  0  0  0  0  0
  1 20  1  0  0  0  0
  1 31  1  1  0  0  0
  2  1  1  0  0  0  0
  3  4  1  0  0  0  0
  3  2  2  0  0  0  0
  3 32  1  0  0  0  0
  4  9  1  0  0  0  0
  5  6  1  0  0  0  0
  5  4  2  0  0  0  0
  5 33  1  0  0  0  0
  6  8  1  0  0  0  0
  7  6  1  0  0  0  0
  8  9  1  0  0  0  0
  8 22  1  0  0  0  0
  9 10  2  0  0  0  0
 10  1  1  0  0  0  0
 10 34  1  0  0  0  0
 11  2  1  0  0  0  0
 12 11  1  0  0  0  0
 12 35  1  0  0  0  0
 12 36  1  0  0  0  0
 13 12  1  0  0  0  0
 13 37  1  0  0  0  0
 13 38  1  0  0  0  0
 14 15  1  0  0  0  0
 14 13  1  0  0  0  0
 14 39  1  0  0  0  0
 14 40  1  0  0  0  0
 15 16  1  0  0  0  0
 16 41  1  0  0  0  0
 16 42  1  0  0  0  0
 17 16  1  0  0  0  0
 17 43  1  0  0  0  0
 17 44  1  0  0  0  0
 18 19  1  0  0  0  0
 18 17  1  0  0  0  0
 18 45  1  0  0  0  0
 18 46  1  0  0  0  0
 19 15  1  0  0  0  0
 19 47  1  0  0  0  0
 19 48  1  0  0  0  0
 21 20  1  0  0  0  0
 21 49  1  0  0  0  0
 21 50  1  0  0  0  0
 21 51  1  0  0  0  0
 22 23  1  0  0  0  0
 22 52  1  0  0  0  0
 22 53  1  0  0  0  0
 23 25  1  0  0  0  0
 23 54  1  1  0  0  0
 24 23  1  0  0  0  0
 25 26  2  0  0  0  0
 25 30  1  0  0  0  0
 26 27  1  0  0  0  0
 26 55  1  0  0  0  0
 27 28  2  0  0  0  0
 27 56  1  0  0  0  0
 28 57  1  0  0  0  0
 29 28  1  0  0  0  0
 29 58  1  0  0  0  0
 30 29  2  0  0  0  0
 30 59  1  0  0  0  0
M  END
>  <REMARK>
 VINA RESULT:      -6.4      4.930      8.941
  9 active torsions:
  status: ('A' for Active; 'I' for Inactive)
    1  A    between atoms: O_2  and  C_3 
    2  A    between atoms: C_4  and  O_5 
    3  A    between atoms: O_5  and  C_6 
    4  A    between atoms: C_6  and  C_7 
    5  A    between atoms: C_7  and  C_8 
    6  A    between atoms: C_8  and  N_9 
    7  A    between atoms: N_19  and  C_20 
    8  A    between atoms: C_20  and  C_21 
    9  A    between atoms: C_21  and  C_23 

>  <TORSDO>
F 9

$$$$
