resistance_project/docking/8faf60323ce63d5a/P00533_T790M/docked/molecule_0009_out.pdbqt
 OpenBabel09142609553D

 61 65  0  0  1  0  0  0  0  0999 V2000
  -49.0070   -0.3970  -17.6020 C   0  0  0  0  0  0  0  0  0  0  0  0
  -48.6840   -0.4030  -18.9390 C   0  0  0  0  0  0  0  0  0  0  0  0
  -49.4890    0.2610  -19.8770 C   0  0  0  0  0  0  0  0  0  0  0  0
  -50.6170    0.9140  -19.3730 C   0  0  0  0  0  0  0  0  0  0  0  0
  -51.3880    1.5380  -20.2610 N   0  0  0  0  0  0  0  0  0  0  0  0
  -51.1300    1.5210  -21.2480 H   0  0  0  0  0  0  0  0  0  0  0  0
  -52.5170    2.2000  -19.8740 C   0  0  0  0  0  0  0  0  0  0  0  0
  -52.8440    2.2110  -18.5480 N   0  0  0  0  0  0  0  0  0  0  0  0
  -53.6830    2.6990  -18.2370 H   0  0  0  0  0  0  0  0  0  0  0  0
  -52.0670    1.5830  -17.6540 C   0  0  1  0  0  0  0  0  0  0  0  0
  -50.9260    0.9090  -18.0230 C   0  0  0  0  0  0  0  0  0  0  0  0
  -50.1200    0.2460  -17.0920 C   0  0  0  0  0  0  0  0  0  0  0  0
  -47.5530   -1.0620  -19.4110 O   0  0  0  0  0  0  0  0  0  0  0  0
  -47.5060   -2.4070  -19.7380 C   0  0  0  0  0  0  0  0  0  0  0  0
  -47.8690   -2.7720  -21.1080 C   0  0  1  0  0  0  0  0  0  0  0  0
  -48.6090   -2.0580  -22.0100 N   0  0  0  0  0  0  0  0  0  0  0  0
  -48.6540   -2.8400  -23.1310 C   0  0  2  0  0  0  0  0  0  0  0  0
  -49.0370   -1.1430  -21.8760 H   0  0  0  0  0  0  0  0  0  0  0  0
  -47.9560   -3.9800  -22.8940 N   0  0  0  0  0  0  0  0  0  0  0  0
  -47.5160   -3.8900  -21.6910 O   0  0  0  0  0  0  0  0  0  0  0  0
  -47.8120   -4.7550  -23.5410 H   0  0  0  0  0  0  0  0  0  0  0  0
  -49.3290   -2.5560  -24.4220 C   0  0  0  0  0  0  0  0  0  0  0  0
  -51.0920   -2.8610  -24.2010 S   0  0  0  0  0  0  0  0  0  0  0  0
  -51.4700   -3.7910  -25.3330 O   0  0  0  0  0  0  0  0  0  0  0  0
  -51.3640   -3.5460  -22.9060 O   0  0  0  0  0  0  0  0  0  0  0  0
  -51.8780   -1.3320  -24.3570 C   0  0  0  0  0  0  0  0  0  0  0  0
  -52.8480   -1.1410  -25.2590 N   0  0  0  0  0  0  0  0  0  0  0  0
  -53.4960    0.0350  -25.4230 C   0  0  0  0  0  0  0  0  0  0  0  0
  -53.1140   -1.9240  -25.8560 H   0  0  0  0  0  0  0  0  0  0  0  0
  -53.1430    1.0940  -24.6210 C   0  0  0  0  0  0  0  0  0  0  0  0
  -52.1600    0.9670  -23.6810 C   0  0  0  0  0  0  0  0  0  0  0  0
  -51.5320   -0.2570  -23.5580 C   0  0  0  0  0  0  0  0  0  0  0  0
  -48.1930   -1.0680  -16.6760 O   0  0  0  0  0  0  0  0  0  0  0  0
  -48.5680   -2.2920  -16.0990 C   0  0  0  0  0  0  0  0  0  0  0  0
  -52.4720    1.6440  -16.2770 N   0  0  0  0  0  0  0  0  0  0  0  0
  -52.9720    0.8900  -15.8060 H   0  0  0  0  0  0  0  0  0  0  0  0
  -52.0970    2.8800  -15.6210 C   0  0  0  0  0  0  0  0  0  0  0  0
  -51.1820    2.7730  -14.5760 C   0  0  0  0  0  0  0  0  0  0  0  0
  -50.7820    3.9480  -13.9220 C   0  0  0  0  0  0  0  0  0  0  0  0
  -49.6250    3.7980  -12.6050 Cl  0  0  0  0  0  0  0  0  0  0  0  0
  -51.2880    5.1590  -14.3150 C   0  0  0  0  0  0  0  0  0  0  0  0
  -50.7320    6.5810  -13.4440 Cl  0  0  0  0  0  0  0  0  0  0  0  0
  -52.2130    5.2820  -15.3670 C   0  0  0  0  0  0  0  0  0  0  0  0
  -52.5940    4.0860  -16.0020 C   0  0  0  0  0  0  0  0  0  0  0  0
  -48.8816    0.9920  -20.3684 H   0  0  0  0  0  0  0  0  0  0  0  0
  -53.3381    1.7572  -20.3981 H   0  0  0  0  0  0  0  0  0  0  0  0
  -50.7242   -0.4868  -16.5992 H   0  0  0  0  0  0  0  0  0  0  0  0
  -46.5052   -2.7454  -19.5685 H   0  0  0  0  0  0  0  0  0  0  0  0
  -48.2493   -2.8683  -19.1219 H   0  0  0  0  0  0  0  0  0  0  0  0
  -49.1682   -1.5353  -24.7000 H   0  0  0  0  0  0  0  0  0  0  0  0
  -48.9354   -3.1822  -25.1952 H   0  0  0  0  0  0  0  0  0  0  0  0
  -54.2378    0.1347  -26.1335 H   0  0  0  0  0  0  0  0  0  0  0  0
  -53.6278    1.9984  -24.7306 H   0  0  0  0  0  0  0  0  0  0  0  0
  -52.5966    1.1970  -22.7316 H   0  0  0  0  0  0  0  0  0  0  0  0
  -50.7869   -0.3723  -22.8533 H   0  0  0  0  0  0  0  0  0  0  0  0
  -47.8022   -2.6190  -15.4270 H   0  0  0  0  0  0  0  0  0  0  0  0
  -48.7029   -3.0228  -16.8689 H   0  0  0  0  0  0  0  0  0  0  0  0
  -49.4847   -2.1669  -15.5614 H   0  0  0  0  0  0  0  0  0  0  0  0
  -50.8085    1.8543  -14.2906 H   0  0  0  0  0  0  0  0  0  0  0  0
  -52.5908    6.1976  -15.6567 H   0  0  0  0  0  0  0  0  0  0  0  0
  -53.2708    4.1256  -16.7800 H   0  0  0  0  0  0  0  0  0  0  0  0
  1 12  1  0  0  0  0
  1 33  1  0  0  0  0
  2  1  2  0  0  0  0
  3  4  1  0  0  0  0
  3  2  1  0  0  0  0
  3 45  1  0  0  0  0
  4 11  2  0  0  0  0
  5  7  1  0  0  0  0
  5  4  1  0  0  0  0
  6  5  1  0  0  0  0
  7  8  1  0  0  0  0
  7 46  1  0  0  0  0
  8  9  1  0  0  0  0
  8 10  1  0  0  0  0
 10 35  1  1  0  0  0
 11 10  1  0  0  0  0
 11 12  1  0  0  0  0
 12 47  1  0  0  0  0
 13  2  1  0  0  0  0
 14 13  1  0  0  0  0
 14 48  1  0  0  0  0
 14 49  1  0  0  0  0
 15 14  1  6  0  0  0
 16 18  1  0  0  0  0
 16 15  1  0  0  0  0
 17 22  1  6  0  0  0
 17 19  1  0  0  0  0
 17 16  1  0  0  0  0
 19 20  1  0  0  0  0
 20 15  1  0  0  0  0
 21 19  1  0  0  0  0
 22 23  1  0  0  0  0
 22 50  1  0  0  0  0
 22 51  1  0  0  0  0
 23 25  2  0  0  0  0
 24 23  2  0  0  0  0
 26 23  1  0  0  0  0
 26 32  2  0  0  0  0
 27 26  1  0  0  0  0
 28 27  1  0  0  0  0
 28 30  2  0  0  0  0
 28 52  1  0  0  0  0
 29 27  1  0  0  0  0
 30 31  1  0  0  0  0
 30 53  1  0  0  0  0
 31 32  1  0  0  0  0
 31 54  1  0  0  0  0
 32 55  1  0  0  0  0
 33 34  1  0  0  0  0
 34 56  1  0  0  0  0
 34 57  1  0  0  0  0
 34 58  1  0  0  0  0
 35 36  1  0  0  0  0
 35 37  1  0  0  0  0
 37 38  1  0  0  0  0
 38 39  2  0  0  0  0
 38 59  1  0  0  0  0
 39 40  1  0  0  0  0
 41 39  1  0  0  0  0
 41 42  1  0  0  0  0
 43 41  2  0  0  0  0
 43 60  1  0  0  0  0
 44 37  2  0  0  0  0
 44 43  1  0  0  0  0
 44 61  1  0  0  0  0
M  END
>  <MODEL>
1

>  <REMARK>
 VINA RESULT:      -8.7      0.000      0.000
  9 active torsions:
  status: ('A' for Active; 'I' for Inactive)
    1  A    between atoms: O_2  and  C_3 
    2  A    between atoms: C_4  and  O_5 
    3  A    between atoms: O_5  and  C_6 
    4  A    between atoms: C_6  and  C_7 
    5  A    between atoms: C_10  and  C_11 
    6  A    between atoms: C_11  and  S_12 
    7  A    between atoms: S_12  and  C_15 
    8  A    between atoms: C_32  and  N_33 
    9  A    between atoms: N_33  and  C_35 

>  <TORSDO>
F 9

$$$$
resistance_project/docking/8faf60323ce63d5a/P00533_T790M/docked/molecule_0009_out.pdbqt
 OpenBabel09142609553D

 61 65  0  0  1  0  0  0  0  0999 V2000
  -51.2600    0.2320  -20.5770 C   0  0  0  0  0  0  0  0  0  0  0  0
  -52.3630    0.7750  -19.9580 C   0  0  0  0  0  0  0  0  0  0  0  0
  -53.4470    1.2530  -20.7100 C   0  0  0  0  0  0  0  0  0  0  0  0
  -53.3330    1.1440  -22.0980 C   0  0  0  0  0  0  0  0  0  0  0  0
  -54.3570    1.6040  -22.8160 N   0  0  0  0  0  0  0  0  0  0  0  0
  -55.1640    2.0030  -22.3370 H   0  0  0  0  0  0  0  0  0  0  0  0
  -54.3430    1.5520  -24.1790 C   0  0  0  0  0  0  0  0  0  0  0  0
  -53.2520    1.0130  -24.8000 N   0  0  0  0  0  0  0  0  0  0  0  0
  -53.2210    0.9650  -25.8180 H   0  0  0  0  0  0  0  0  0  0  0  0
  -52.2230    0.5500  -24.0780 C   0  0  1  0  0  0  0  0  0  0  0  0
  -52.2150    0.5940  -22.7030 C   0  0  0  0  0  0  0  0  0  0  0  0
  -51.1370    0.1190  -21.9490 C   0  0  0  0  0  0  0  0  0  0  0  0
  -52.4470    0.8700  -18.5730 O   0  0  0  0  0  0  0  0  0  0  0  0
  -52.0690    1.9800  -17.8360 C   0  0  0  0  0  0  0  0  0  0  0  0
  -51.6030    1.7440  -16.4690 C   0  0  1  0  0  0  0  0  0  0  0  0
  -52.2090    1.0240  -15.4760 N   0  0  0  0  0  0  0  0  0  0  0  0
  -51.3660    1.1180  -14.4040 C   0  0  1  0  0  0  0  0  0  0  0  0
  -53.0970    0.5270  -15.5250 H   0  0  0  0  0  0  0  0  0  0  0  0
  -50.2930    1.8720  -14.7580 N   0  0  0  0  0  0  0  0  0  0  0  0
  -50.4820    2.2140  -15.9810 O   0  0  0  0  0  0  0  0  0  0  0  0
  -49.4980    2.1170  -14.1710 H   0  0  0  0  0  0  0  0  0  0  0  0
  -51.5300    0.5260  -13.0530 C   0  0  0  0  0  0  0  0  0  0  0  0
  -50.4630   -0.9220  -12.9500 S   0  0  0  0  0  0  0  0  0  0  0  0
  -50.1610   -1.2860  -14.3880 O   0  0  0  0  0  0  0  0  0  0  0  0
  -49.1820   -0.6020  -12.2590 O   0  0  0  0  0  0  0  0  0  0  0  0
  -51.3840   -2.1570  -12.1710 C   0  0  0  0  0  0  0  0  0  0  0  0
  -52.6480   -1.9430  -11.7910 N   0  0  0  0  0  0  0  0  0  0  0  0
  -53.4140   -2.8740  -11.1780 C   0  0  0  0  0  0  0  0  0  0  0  0
  -53.0590   -1.0270  -11.9740 H   0  0  0  0  0  0  0  0  0  0  0  0
  -52.8660   -4.1110  -10.9300 C   0  0  0  0  0  0  0  0  0  0  0  0
  -51.5800   -4.3950  -11.2910 C   0  0  0  0  0  0  0  0  0  0  0  0
  -50.8450   -3.4060  -11.9140 C   0  0  0  0  0  0  0  0  0  0  0  0
  -50.1820   -0.2400  -19.8100 O   0  0  0  0  0  0  0  0  0  0  0  0
  -48.8710    0.2270  -19.9970 C   0  0  0  0  0  0  0  0  0  0  0  0
  -51.1130   -0.0090  -24.8010 N   0  0  0  0  0  0  0  0  0  0  0  0
  -50.4980    0.5450  -25.3970 H   0  0  0  0  0  0  0  0  0  0  0  0
  -50.9530   -1.4340  -24.6000 C   0  0  0  0  0  0  0  0  0  0  0  0
  -49.6540   -1.8850  -24.3790 C   0  0  0  0  0  0  0  0  0  0  0  0
  -49.4560   -3.2580  -24.1650 C   0  0  0  0  0  0  0  0  0  0  0  0
  -47.8100   -3.8130  -23.8870 Cl  0  0  0  0  0  0  0  0  0  0  0  0
  -50.5240   -4.1160  -24.1770 C   0  0  0  0  0  0  0  0  0  0  0  0
  -50.1880   -5.8180  -23.8990 Cl  0  0  0  0  0  0  0  0  0  0  0  0
  -51.8400   -3.6750  -24.3990 C   0  0  0  0  0  0  0  0  0  0  0  0
  -52.0060   -2.2930  -24.6100 C   0  0  0  0  0  0  0  0  0  0  0  0
  -54.3174    0.7075  -20.4105 H   0  0  0  0  0  0  0  0  0  0  0  0
  -55.1941    0.9786  -24.4819 H   0  0  0  0  0  0  0  0  0  0  0  0
  -50.2651    0.6638  -22.2454 H   0  0  0  0  0  0  0  0  0  0  0  0
  -52.9145    2.6334  -17.7803 H   0  0  0  0  0  0  0  0  0  0  0  0
  -51.2219    2.3805  -18.3525 H   0  0  0  0  0  0  0  0  0  0  0  0
  -52.5496    0.2377  -12.9037 H   0  0  0  0  0  0  0  0  0  0  0  0
  -51.2659    1.2381  -12.2993 H   0  0  0  0  0  0  0  0  0  0  0  0
  -54.3857   -2.6615  -10.9031 H   0  0  0  0  0  0  0  0  0  0  0  0
  -53.4351   -4.8351  -10.4643 H   0  0  0  0  0  0  0  0  0  0  0  0
  -51.0534   -4.6689  -10.4007 H   0  0  0  0  0  0  0  0  0  0  0  0
  -49.8715   -3.6024  -12.1945 H   0  0  0  0  0  0  0  0  0  0  0  0
  -48.2155   -0.2655  -19.3095 H   0  0  0  0  0  0  0  0  0  0  0  0
  -48.8405    1.2826  -19.8249 H   0  0  0  0  0  0  0  0  0  0  0  0
  -48.5581    0.0197  -20.9990 H   0  0  0  0  0  0  0  0  0  0  0  0
  -48.8586   -1.2275  -24.3728 H   0  0  0  0  0  0  0  0  0  0  0  0
  -52.6395   -4.3275  -24.4069 H   0  0  0  0  0  0  0  0  0  0  0  0
  -52.9543   -1.9217  -24.7770 H   0  0  0  0  0  0  0  0  0  0  0  0
  1  2  2  0  0  0  0
  1 33  1  0  0  0  0
  2 13  1  0  0  0  0
  3  2  1  0  0  0  0
  3 45  1  0  0  0  0
  4  3  1  0  0  0  0
  5  6  1  0  0  0  0
  5  4  1  0  0  0  0
  7  5  1  0  0  0  0
  7 46  1  0  0  0  0
  8  7  1  0  0  0  0
  8 10  1  0  0  0  0
  9  8  1  0  0  0  0
 10 35  1  1  0  0  0
 10 11  1  0  0  0  0
 11  4  2  0  0  0  0
 11 12  1  0  0  0  0
 12  1  1  0  0  0  0
 12 47  1  0  0  0  0
 13 14  1  0  0  0  0
 14 48  1  0  0  0  0
 14 49  1  0  0  0  0
 15 14  1  6  0  0  0
 15 20  1  0  0  0  0
 15 16  1  0  0  0  0
 16 17  1  0  0  0  0
 17 22  1  1  0  0  0
 18 16  1  0  0  0  0
 19 17  1  0  0  0  0
 19 21  1  0  0  0  0
 20 19  1  0  0  0  0
 22 23  1  0  0  0  0
 22 50  1  0  0  0  0
 22 51  1  0  0  0  0
 23 25  2  0  0  0  0
 23 26  1  0  0  0  0
 24 23  2  0  0  0  0
 26 32  2  0  0  0  0
 26 27  1  0  0  0  0
 27 28  1  0  0  0  0
 28 30  2  0  0  0  0
 28 52  1  0  0  0  0
 29 27  1  0  0  0  0
 30 53  1  0  0  0  0
 31 30  1  0  0  0  0
 31 54  1  0  0  0  0
 32 31  1  0  0  0  0
 32 55  1  0  0  0  0
 34 33  1  0  0  0  0
 34 56  1  0  0  0  0
 34 57  1  0  0  0  0
 34 58  1  0  0  0  0
 35 37  1  0  0  0  0
 36 35  1  0  0  0  0
 37 38  1  0  0  0  0
 38 39  2  0  0  0  0
 38 59  1  0  0  0  0
 39 40  1  0  0  0  0
 41 39  1  0  0  0  0
 41 42  1  0  0  0  0
 43 41  2  0  0  0  0
 43 60  1  0  0  0  0
 44 37  2  0  0  0  0
 44 43  1  0  0  0  0
 44 61  1  0  0  0  0
M  END
>  <REMARK>
 VINA RESULT:      -8.6      4.887      9.906
  9 active torsions:
  status: ('A' for Active; 'I' for Inactive)
    1  A    between atoms: O_2  and  C_3 
    2  A    between atoms: C_4  and  O_5 
    3  A    between atoms: O_5  and  C_6 
    4  A    between atoms: C_6  and  C_7 
    5  A    between atoms: C_10  and  C_11 
    6  A    between atoms: C_11  and  S_12 
    7  A    between atoms: S_12  and  C_15 
    8  A    between atoms: C_32  and  N_33 
    9  A    between atoms: N_33  and  C_35 

>  <TORSDO>
F 9

$$$$
resistance_project/docking/8faf60323ce63d5a/P00533_T790M/docked/molecule_0009_out.pdbqt
 OpenBabel09142609553D

 61 65  0  0  1  0  0  0  0  0999 V2000
  -51.9150   -1.1400  -20.9000 C   0  0  0  0  0  0  0  0  0  0  0  0
  -52.3720    0.1580  -20.8990 C   0  0  0  0  0  0  0  0  0  0  0  0
  -52.3450    0.9310  -22.0700 C   0  0  0  0  0  0  0  0  0  0  0  0
  -51.8330    0.3080  -23.2110 C   0  0  0  0  0  0  0  0  0  0  0  0
  -51.7990    1.0400  -24.3230 N   0  0  0  0  0  0  0  0  0  0  0  0
  -52.1420    2.0000  -24.3000 H   0  0  0  0  0  0  0  0  0  0  0  0
  -51.3110    0.5290  -25.4900 C   0  0  0  0  0  0  0  0  0  0  0  0
  -50.8570   -0.7590  -25.4980 N   0  0  0  0  0  0  0  0  0  0  0  0
  -50.4870   -1.1610  -26.3600 H   0  0  0  0  0  0  0  0  0  0  0  0
  -50.8920   -1.4960  -24.3800 C   0  0  1  0  0  0  0  0  0  0  0  0
  -51.3780   -1.0010  -23.1920 C   0  0  0  0  0  0  0  0  0  0  0  0
  -51.4080   -1.7670  -22.0230 C   0  0  0  0  0  0  0  0  0  0  0  0
  -52.8760    0.7510  -19.7460 O   0  0  0  0  0  0  0  0  0  0  0  0
  -52.2390    1.7540  -19.0340 C   0  0  0  0  0  0  0  0  0  0  0  0
  -51.6860    1.3930  -17.7280 C   0  0  2  0  0  0  0  0  0  0  0  0
  -52.3540    1.1680  -16.5550 N   0  0  0  0  0  0  0  0  0  0  0  0
  -51.3790    0.8680  -15.6440 C   0  0  1  0  0  0  0  0  0  0  0  0
  -53.3600    1.2140  -16.3950 H   0  0  0  0  0  0  0  0  0  0  0  0
  -50.1730    0.9150  -16.2650 N   0  0  0  0  0  0  0  0  0  0  0  0
  -50.4100    1.2280  -17.4870 O   0  0  0  0  0  0  0  0  0  0  0  0
  -49.2620    0.7390  -15.8450 H   0  0  0  0  0  0  0  0  0  0  0  0
  -51.5390    0.5400  -14.2050 C   0  0  0  0  0  0  0  0  0  0  0  0
  -50.6650   -1.0050  -13.8910 S   0  0  0  0  0  0  0  0  0  0  0  0
  -50.5510   -1.6700  -15.2450 O   0  0  0  0  0  0  0  0  0  0  0  0
  -49.2940   -0.7530  -13.3650 O   0  0  0  0  0  0  0  0  0  0  0  0
  -51.6610   -1.9250  -12.8230 C   0  0  0  0  0  0  0  0  0  0  0  0
  -52.5410   -1.3280  -12.0100 N   0  0  0  0  0  0  0  0  0  0  0  0
  -53.3450   -2.0000  -11.1550 C   0  0  0  0  0  0  0  0  0  0  0  0
  -52.6100   -0.3110  -12.0370 H   0  0  0  0  0  0  0  0  0  0  0  0
  -53.2570   -3.3720  -11.1160 C   0  0  0  0  0  0  0  0  0  0  0  0
  -52.3790   -4.0430  -11.9180 C   0  0  0  0  0  0  0  0  0  0  0  0
  -51.5820   -3.3060  -12.7720 C   0  0  0  0  0  0  0  0  0  0  0  0
  -51.9470   -1.8990  -19.7190 O   0  0  0  0  0  0  0  0  0  0  0  0
  -50.8220   -2.0390  -18.8900 C   0  0  0  0  0  0  0  0  0  0  0  0
  -50.4030   -2.8450  -24.4670 N   0  0  0  0  0  0  0  0  0  0  0  0
  -50.8990   -3.6460  -24.0760 H   0  0  0  0  0  0  0  0  0  0  0  0
  -49.1390   -2.9560  -25.1660 C   0  0  0  0  0  0  0  0  0  0  0  0
  -48.0250   -2.4320  -24.5160 C   0  0  0  0  0  0  0  0  0  0  0  0
  -46.7780   -2.5300  -25.1510 C   0  0  0  0  0  0  0  0  0  0  0  0
  -45.3800   -1.8640  -24.3170 Cl  0  0  0  0  0  0  0  0  0  0  0  0
  -46.6790   -3.1300  -26.3790 C   0  0  0  0  0  0  0  0  0  0  0  0
  -45.0810   -3.2140  -27.1030 Cl  0  0  0  0  0  0  0  0  0  0  0  0
  -47.7950   -3.6630  -27.0480 C   0  0  0  0  0  0  0  0  0  0  0  0
  -49.0310   -3.5480  -26.3850 C   0  0  0  0  0  0  0  0  0  0  0  0
  -53.3490    1.2317  -22.2854 H   0  0  0  0  0  0  0  0  0  0  0  0
  -52.0956    0.5919  -26.2148 H   0  0  0  0  0  0  0  0  0  0  0  0
  -50.4053   -2.0697  -21.8042 H   0  0  0  0  0  0  0  0  0  0  0  0
  -52.9484    2.5397  -18.8782 H   0  0  0  0  0  0  0  0  0  0  0  0
  -51.3919    2.0228  -19.6298 H   0  0  0  0  0  0  0  0  0  0  0  0
  -52.5768    0.4251  -13.9712 H   0  0  0  0  0  0  0  0  0  0  0  0
  -51.1408    1.3248  -13.5964 H   0  0  0  0  0  0  0  0  0  0  0  0
  -54.0085   -1.4955  -10.5465 H   0  0  0  0  0  0  0  0  0  0  0  0
  -53.8636   -3.9022  -10.4710 H   0  0  0  0  0  0  0  0  0  0  0  0
  -51.7276   -4.6011  -11.2784 H   0  0  0  0  0  0  0  0  0  0  0  0
  -50.9126   -3.7960  -13.3859 H   0  0  0  0  0  0  0  0  0  0  0  0
  -51.0712   -2.6554  -18.0516 H   0  0  0  0  0  0  0  0  0  0  0  0
  -50.5115   -1.0752  -18.5443 H   0  0  0  0  0  0  0  0  0  0  0  0
  -50.0261   -2.4932  -19.4425 H   0  0  0  0  0  0  0  0  0  0  0  0
  -48.1143   -1.9831  -23.5910 H   0  0  0  0  0  0  0  0  0  0  0  0
  -47.7124   -4.1131  -27.9730 H   0  0  0  0  0  0  0  0  0  0  0  0
  -49.8793   -3.9237  -26.8369 H   0  0  0  0  0  0  0  0  0  0  0  0
  1  2  2  0  0  0  0
  1 33  1  0  0  0  0
  2 13  1  0  0  0  0
  3  2  1  0  0  0  0
  3 45  1  0  0  0  0
  4 11  2  0  0  0  0
  4  3  1  0  0  0  0
  5  6  1  0  0  0  0
  5  4  1  0  0  0  0
  7  5  1  0  0  0  0
  7 46  1  0  0  0  0
  8  7  1  0  0  0  0
  8 10  1  0  0  0  0
  9  8  1  0  0  0  0
 10 35  1  6  0  0  0
 10 11  1  0  0  0  0
 11 12  1  0  0  0  0
 12  1  1  0  0  0  0
 12 47  1  0  0  0  0
 13 14  1  0  0  0  0
 14 48  1  0  0  0  0
 14 49  1  0  0  0  0
 15 14  1  1  0  0  0
 15 20  1  0  0  0  0
 15 16  1  0  0  0  0
 16 18  1  0  0  0  0
 16 17  1  0  0  0  0
 17 22  1  1  0  0  0
 19 21  1  0  0  0  0
 19 17  1  0  0  0  0
 20 19  1  0  0  0  0
 22 23  1  0  0  0  0
 22 50  1  0  0  0  0
 22 51  1  0  0  0  0
 23 25  2  0  0  0  0
 23 26  1  0  0  0  0
 24 23  2  0  0  0  0
 26 32  2  0  0  0  0
 26 27  1  0  0  0  0
 27 28  1  0  0  0  0
 28 30  2  0  0  0  0
 28 52  1  0  0  0  0
 29 27  1  0  0  0  0
 30 53  1  0  0  0  0
 31 30  1  0  0  0  0
 31 54  1  0  0  0  0
 32 31  1  0  0  0  0
 32 55  1  0  0  0  0
 33 34  1  0  0  0  0
 34 56  1  0  0  0  0
 34 57  1  0  0  0  0
 34 58  1  0  0  0  0
 35 36  1  0  0  0  0
 37 38  2  0  0  0  0
 37 35  1  0  0  0  0
 38 59  1  0  0  0  0
 39 38  1  0  0  0  0
 39 40  1  0  0  0  0
 41 39  2  0  0  0  0
 42 41  1  0  0  0  0
 43 44  2  0  0  0  0
 43 41  1  0  0  0  0
 43 60  1  0  0  0  0
 44 37  1  0  0  0  0
 44 61  1  0  0  0  0
M  END
>  <REMARK>
 VINA RESULT:      -8.3      5.001     10.068
  9 active torsions:
  status: ('A' for Active; 'I' for Inactive)
    1  A    between atoms: O_2  and  C_3 
    2  A    between atoms: C_4  and  O_5 
    3  A    between atoms: O_5  and  C_6 
    4  A    between atoms: C_6  and  C_7 
    5  A    between atoms: C_10  and  C_11 
    6  A    between atoms: C_11  and  S_12 
    7  A    between atoms: S_12  and  C_15 
    8  A    between atoms: C_32  and  N_33 
    9  A    between atoms: N_33  and  C_35 

>  <TORSDO>
F 9

$$$$
resistance_project/docking/8faf60323ce63d5a/P00533_T790M/docked/molecule_0009_out.pdbqt
 OpenBabel09142609553D

 61 65  0  0  1  0  0  0  0  0999 V2000
  -46.9280   -3.5920  -21.6430 C   0  0  0  0  0  0  0  0  0  0  0  0
  -47.0100   -4.9210  -21.2970 C   0  0  0  0  0  0  0  0  0  0  0  0
  -47.3850   -5.3050  -20.0010 C   0  0  0  0  0  0  0  0  0  0  0  0
  -47.6620   -4.2690  -19.1040 C   0  0  0  0  0  0  0  0  0  0  0  0
  -48.0100   -4.6300  -17.8700 N   0  0  0  0  0  0  0  0  0  0  0  0
  -48.0640   -5.6200  -17.6350 H   0  0  0  0  0  0  0  0  0  0  0  0
  -48.2940   -3.6960  -16.9160 C   0  0  0  0  0  0  0  0  0  0  0  0
  -48.2160   -2.3740  -17.2530 N   0  0  0  0  0  0  0  0  0  0  0  0
  -48.4230   -1.6610  -16.5550 H   0  0  0  0  0  0  0  0  0  0  0  0
  -47.8660   -2.0130  -18.4950 C   0  0  1  0  0  0  0  0  0  0  0  0
  -47.5740   -2.9370  -19.4720 C   0  0  0  0  0  0  0  0  0  0  0  0
  -47.2000   -2.5590  -20.7650 C   0  0  0  0  0  0  0  0  0  0  0  0
  -46.7280   -5.9300  -22.2120 O   0  0  0  0  0  0  0  0  0  0  0  0
  -47.6790   -6.7530  -22.7940 C   0  0  0  0  0  0  0  0  0  0  0  0
  -48.9060   -6.1160  -23.2720 C   0  0  1  0  0  0  0  0  0  0  0  0
  -49.0390   -4.9710  -24.0090 N   0  0  0  0  0  0  0  0  0  0  0  0
  -50.3860   -4.8160  -24.1860 C   0  0  1  0  0  0  0  0  0  0  0  0
  -48.2950   -4.3640  -24.3520 H   0  0  0  0  0  0  0  0  0  0  0  0
  -51.0260   -5.8430  -23.5710 N   0  0  0  0  0  0  0  0  0  0  0  0
  -50.1120   -6.5770  -23.0500 O   0  0  0  0  0  0  0  0  0  0  0  0
  -52.0330   -5.9990  -23.5300 H   0  0  0  0  0  0  0  0  0  0  0  0
  -51.0980   -3.7350  -24.9130 C   0  0  0  0  0  0  0  0  0  0  0  0
  -50.3330   -2.1680  -24.4580 S   0  0  0  0  0  0  0  0  0  0  0  0
  -49.9520   -2.3280  -23.0030 O   0  0  0  0  0  0  0  0  0  0  0  0
  -49.0970   -1.9180  -25.2530 O   0  0  0  0  0  0  0  0  0  0  0  0
  -51.5450   -0.9540  -24.6590 C   0  0  0  0  0  0  0  0  0  0  0  0
  -52.6950   -1.2210  -25.2890 N   0  0  0  0  0  0  0  0  0  0  0  0
  -53.6760   -0.3080  -25.4730 C   0  0  0  0  0  0  0  0  0  0  0  0
  -52.8410   -2.1630  -25.6500 H   0  0  0  0  0  0  0  0  0  0  0  0
  -53.4860    0.9640  -24.9870 C   0  0  0  0  0  0  0  0  0  0  0  0
  -52.3350    1.3030  -24.3350 C   0  0  0  0  0  0  0  0  0  0  0  0
  -51.3660    0.3310  -24.1760 C   0  0  0  0  0  0  0  0  0  0  0  0
  -46.5500   -3.2240  -22.9450 O   0  0  0  0  0  0  0  0  0  0  0  0
  -45.7960   -2.0680  -23.2050 C   0  0  0  0  0  0  0  0  0  0  0  0
  -47.8120   -0.6040  -18.7770 N   0  0  0  0  0  0  0  0  0  0  0  0
  -46.9480   -0.0620  -18.7560 H   0  0  0  0  0  0  0  0  0  0  0  0
  -49.1030   -0.0300  -19.0940 C   0  0  0  0  0  0  0  0  0  0  0  0
  -49.8350    0.4750  -18.0230 C   0  0  0  0  0  0  0  0  0  0  0  0
  -51.0860    1.0540  -18.2880 C   0  0  0  0  0  0  0  0  0  0  0  0
  -51.9990    1.6880  -16.9250 Cl  0  0  0  0  0  0  0  0  0  0  0  0
  -51.5570    1.1110  -19.5730 C   0  0  0  0  0  0  0  0  0  0  0  0
  -53.1310    1.8530  -19.8170 Cl  0  0  0  0  0  0  0  0  0  0  0  0
  -50.8290    0.6040  -20.6640 C   0  0  0  0  0  0  0  0  0  0  0  0
  -49.5790    0.0310  -20.3660 C   0  0  0  0  0  0  0  0  0  0  0  0
  -46.5872   -5.8876  -19.5899 H   0  0  0  0  0  0  0  0  0  0  0  0
  -47.6140   -3.8558  -16.1054 H   0  0  0  0  0  0  0  0  0  0  0  0
  -47.9970   -1.9779  -21.1798 H   0  0  0  0  0  0  0  0  0  0  0  0
  -47.2191   -7.2361  -23.6307 H   0  0  0  0  0  0  0  0  0  0  0  0
  -47.9943   -7.4102  -22.0107 H   0  0  0  0  0  0  0  0  0  0  0  0
  -51.0126   -3.8888  -25.9684 H   0  0  0  0  0  0  0  0  0  0  0  0
  -52.1365   -3.7325  -24.6552 H   0  0  0  0  0  0  0  0  0  0  0  0
  -54.5465   -0.5603  -25.9665 H   0  0  0  0  0  0  0  0  0  0  0  0
  -54.2243    1.6733  -25.1169 H   0  0  0  0  0  0  0  0  0  0  0  0
  -52.6110    1.6392  -23.3574 H   0  0  0  0  0  0  0  0  0  0  0  0
  -50.4892    0.5682  -23.6862 H   0  0  0  0  0  0  0  0  0  0  0  0
  -45.6240   -1.9836  -24.2577 H   0  0  0  0  0  0  0  0  0  0  0  0
  -44.8579   -2.1317  -22.6943 H   0  0  0  0  0  0  0  0  0  0  0  0
  -46.3317   -1.2079  -22.8611 H   0  0  0  0  0  0  0  0  0  0  0  0
  -49.4677    0.4250  -17.0599 H   0  0  0  0  0  0  0  0  0  0  0  0
  -51.1913    0.6496  -21.6292 H   0  0  0  0  0  0  0  0  0  0  0  0
  -49.0075   -0.3537  -21.1344 H   0  0  0  0  0  0  0  0  0  0  0  0
  1  2  2  0  0  0  0
  1 12  1  0  0  0  0
  2  3  1  0  0  0  0
  3  4  1  0  0  0  0
  3 45  1  0  0  0  0
  4  5  1  0  0  0  0
  5  6  1  0  0  0  0
  5  7  1  0  0  0  0
  7 46  1  0  0  0  0
  8  7  1  0  0  0  0
  8  9  1  0  0  0  0
 10 35  1  6  0  0  0
 10  8  1  0  0  0  0
 11  4  2  0  0  0  0
 11 10  1  0  0  0  0
 12 11  1  0  0  0  0
 12 47  1  0  0  0  0
 13  2  1  0  0  0  0
 14 13  1  0  0  0  0
 14 48  1  0  0  0  0
 14 49  1  0  0  0  0
 15 20  1  0  0  0  0
 15 14  1  6  0  0  0
 16 15  1  0  0  0  0
 17 22  1  1  0  0  0
 17 16  1  0  0  0  0
 17 19  1  0  0  0  0
 18 16  1  0  0  0  0
 19 21  1  0  0  0  0
 19 20  1  0  0  0  0
 22 23  1  0  0  0  0
 22 50  1  0  0  0  0
 22 51  1  0  0  0  0
 23 24  2  0  0  0  0
 25 23  2  0  0  0  0
 26 23  1  0  0  0  0
 26 32  2  0  0  0  0
 27 26  1  0  0  0  0
 28 27  1  0  0  0  0
 28 30  2  0  0  0  0
 28 52  1  0  0  0  0
 29 27  1  0  0  0  0
 30 31  1  0  0  0  0
 30 53  1  0  0  0  0
 31 32  1  0  0  0  0
 31 54  1  0  0  0  0
 32 55  1  0  0  0  0
 33  1  1  0  0  0  0
 34 33  1  0  0  0  0
 34 56  1  0  0  0  0
 34 57  1  0  0  0  0
 34 58  1  0  0  0  0
 35 36  1  0  0  0  0
 37 35  1  0  0  0  0
 37 38  2  0  0  0  0
 38 59  1  0  0  0  0
 39 38  1  0  0  0  0
 39 40  1  0  0  0  0
 41 39  2  0  0  0  0
 42 41  1  0  0  0  0
 43 44  2  0  0  0  0
 43 41  1  0  0  0  0
 43 60  1  0  0  0  0
 44 37  1  0  0  0  0
 44 61  1  0  0  0  0
M  END
>  <REMARK>
 VINA RESULT:      -8.2      3.266      5.107
  9 active torsions:
  status: ('A' for Active; 'I' for Inactive)
    1  A    between atoms: O_2  and  C_3 
    2  A    between atoms: C_4  and  O_5 
    3  A    between atoms: O_5  and  C_6 
    4  A    between atoms: C_6  and  C_7 
    5  A    between atoms: C_10  and  C_11 
    6  A    between atoms: C_11  and  S_12 
    7  A    between atoms: S_12  and  C_15 
    8  A    between atoms: C_32  and  N_33 
    9  A    between atoms: N_33  and  C_35 

>  <TORSDO>
F 9

$$$$
resistance_project/docking/8faf60323ce63d5a/P00533_T790M/docked/molecule_0009_out.pdbqt
 OpenBabel09142609553D

 61 65  0  0  1  0  0  0  0  0999 V2000
  -51.5050    1.4900  -17.4500 C   0  0  0  0  0  0  0  0  0  0  0  0
  -51.3890    1.2430  -18.7990 C   0  0  0  0  0  0  0  0  0  0  0  0
  -50.3920    0.3870  -19.2900 C   0  0  0  0  0  0  0  0  0  0  0  0
  -49.5420   -0.1830  -18.3390 C   0  0  0  0  0  0  0  0  0  0  0  0
  -48.5880   -0.9900  -18.8020 N   0  0  0  0  0  0  0  0  0  0  0  0
  -48.5200   -1.1600  -19.8050 H   0  0  0  0  0  0  0  0  0  0  0  0
  -47.7020   -1.5920  -17.9570 C   0  0  0  0  0  0  0  0  0  0  0  0
  -47.8120   -1.3520  -16.6170 N   0  0  0  0  0  0  0  0  0  0  0  0
  -47.1590   -1.7910  -15.9680 H   0  0  0  0  0  0  0  0  0  0  0  0
  -48.7710   -0.5400  -16.1510 C   0  0  1  0  0  0  0  0  0  0  0  0
  -49.6750    0.0780  -16.9850 C   0  0  0  0  0  0  0  0  0  0  0  0
  -50.6700    0.9310  -16.5000 C   0  0  0  0  0  0  0  0  0  0  0  0
  -52.2510    1.8260  -19.7220 O   0  0  0  0  0  0  0  0  0  0  0  0
  -53.2320    1.1430  -20.4220 C   0  0  0  0  0  0  0  0  0  0  0  0
  -53.0650    1.0400  -21.8720 C   0  0  1  0  0  0  0  0  0  0  0  0
  -51.9720    0.6120  -22.5740 N   0  0  0  0  0  0  0  0  0  0  0  0
  -52.3320    0.7120  -23.8890 C   0  0  2  0  0  0  0  0  0  0  0  0
  -51.0800    0.2900  -22.1980 H   0  0  0  0  0  0  0  0  0  0  0  0
  -53.6030    1.1830  -23.9570 N   0  0  0  0  0  0  0  0  0  0  0  0
  -53.9870    1.3600  -22.7450 O   0  0  0  0  0  0  0  0  0  0  0  0
  -54.1450    1.3630  -24.8020 H   0  0  0  0  0  0  0  0  0  0  0  0
  -51.5250    0.3800  -25.0890 C   0  0  0  0  0  0  0  0  0  0  0  0
  -51.5580   -1.4090  -25.3000 S   0  0  0  0  0  0  0  0  0  0  0  0
  -52.6900   -1.8850  -24.4170 O   0  0  0  0  0  0  0  0  0  0  0  0
  -51.8610   -1.7820  -26.7110 O   0  0  0  0  0  0  0  0  0  0  0  0
  -50.0350   -1.9980  -24.7380 C   0  0  0  0  0  0  0  0  0  0  0  0
  -49.0910   -2.4060  -25.5940 N   0  0  0  0  0  0  0  0  0  0  0  0
  -47.8830   -2.8760  -25.2080 C   0  0  0  0  0  0  0  0  0  0  0  0
  -49.2930   -2.3610  -26.5930 H   0  0  0  0  0  0  0  0  0  0  0  0
  -47.6050   -2.9380  -23.8630 C   0  0  0  0  0  0  0  0  0  0  0  0
  -48.5240   -2.5380  -22.9350 C   0  0  0  0  0  0  0  0  0  0  0  0
  -49.7420   -2.0680  -23.3870 C   0  0  0  0  0  0  0  0  0  0  0  0
  -52.5070    2.3510  -16.9750 O   0  0  0  0  0  0  0  0  0  0  0  0
  -52.2200    3.4430  -16.1400 C   0  0  0  0  0  0  0  0  0  0  0  0
  -48.8280   -0.3410  -14.7290 N   0  0  0  0  0  0  0  0  0  0  0  0
  -48.2800    0.3670  -14.2410 H   0  0  0  0  0  0  0  0  0  0  0  0
  -49.7410   -1.2420  -14.0570 C   0  0  0  0  0  0  0  0  0  0  0  0
  -50.7320   -0.6510  -13.2780 C   0  0  0  0  0  0  0  0  0  0  0  0
  -51.6470   -1.4870  -12.6200 C   0  0  0  0  0  0  0  0  0  0  0  0
  -52.8930   -0.7260  -11.6400 Cl  0  0  0  0  0  0  0  0  0  0  0  0
  -51.5520   -2.8470  -12.7530 C   0  0  0  0  0  0  0  0  0  0  0  0
  -52.7380   -3.8210  -11.8980 Cl  0  0  0  0  0  0  0  0  0  0  0  0
  -50.5560   -3.4580  -13.5360 C   0  0  0  0  0  0  0  0  0  0  0  0
  -49.6550   -2.5930  -14.1830 C   0  0  0  0  0  0  0  0  0  0  0  0
  -49.7881    0.9477  -19.9726 H   0  0  0  0  0  0  0  0  0  0  0  0
  -46.7220   -1.2817  -18.2539 H   0  0  0  0  0  0  0  0  0  0  0  0
  -51.2770    0.3720  -15.8188 H   0  0  0  0  0  0  0  0  0  0  0  0
  -53.2740    0.1480  -20.0306 H   0  0  0  0  0  0  0  0  0  0  0  0
  -54.1227    1.7200  -20.2856 H   0  0  0  0  0  0  0  0  0  0  0  0
  -51.9431    0.8557  -25.9514 H   0  0  0  0  0  0  0  0  0  0  0  0
  -50.5186    0.7228  -24.9682 H   0  0  0  0  0  0  0  0  0  0  0  0
  -47.1868   -3.1807  -25.9062 H   0  0  0  0  0  0  0  0  0  0  0  0
  -46.6877   -3.2923  -23.5497 H   0  0  0  0  0  0  0  0  0  0  0  0
  -48.0750   -1.7555  -22.3598 H   0  0  0  0  0  0  0  0  0  0  0  0
  -50.4499   -1.7619  -22.7013 H   0  0  0  0  0  0  0  0  0  0  0  0
  -53.1272    3.9580  -15.9018 H   0  0  0  0  0  0  0  0  0  0  0  0
  -51.5523    4.1108  -16.6430 H   0  0  0  0  0  0  0  0  0  0  0  0
  -51.7619    3.0922  -15.2389 H   0  0  0  0  0  0  0  0  0  0  0  0
  -50.7921    0.3752  -13.1868 H   0  0  0  0  0  0  0  0  0  0  0  0
  -50.4900   -4.4835  -13.6305 H   0  0  0  0  0  0  0  0  0  0  0  0
  -48.9075   -2.9953  -14.7699 H   0  0  0  0  0  0  0  0  0  0  0  0
  1 33  1  0  0  0  0
  1 12  1  0  0  0  0
  2  1  2  0  0  0  0
  3  2  1  0  0  0  0
  3  4  1  0  0  0  0
  3 45  1  0  0  0  0
  4 11  2  0  0  0  0
  5  4  1  0  0  0  0
  5  7  1  0  0  0  0
  6  5  1  0  0  0  0
  7  8  1  0  0  0  0
  7 46  1  0  0  0  0
  8 10  1  0  0  0  0
  8  9  1  0  0  0  0
 10 35  1  1  0  0  0
 11 12  1  0  0  0  0
 11 10  1  0  0  0  0
 12 47  1  0  0  0  0
 13  2  1  0  0  0  0
 14 13  1  0  0  0  0
 14 48  1  0  0  0  0
 14 49  1  0  0  0  0
 15 14  1  1  0  0  0
 16 18  1  0  0  0  0
 16 15  1  0  0  0  0
 17 22  1  1  0  0  0
 17 16  1  0  0  0  0
 19 17  1  0  0  0  0
 19 20  1  0  0  0  0
 20 15  1  0  0  0  0
 21 19  1  0  0  0  0
 22 50  1  0  0  0  0
 22 51  1  0  0  0  0
 23 22  1  0  0  0  0
 23 26  1  0  0  0  0
 23 24  2  0  0  0  0
 25 23  2  0  0  0  0
 26 32  2  0  0  0  0
 27 28  1  0  0  0  0
 27 26  1  0  0  0  0
 28 30  2  0  0  0  0
 28 52  1  0  0  0  0
 29 27  1  0  0  0  0
 30 31  1  0  0  0  0
 30 53  1  0  0  0  0
 31 54  1  0  0  0  0
 32 31  1  0  0  0  0
 32 55  1  0  0  0  0
 33 34  1  0  0  0  0
 34 56  1  0  0  0  0
 34 57  1  0  0  0  0
 34 58  1  0  0  0  0
 35 36  1  0  0  0  0
 35 37  1  0  0  0  0
 37 38  1  0  0  0  0
 38 39  2  0  0  0  0
 38 59  1  0  0  0  0
 39 40  1  0  0  0  0
 41 39  1  0  0  0  0
 41 42  1  0  0  0  0
 43 41  2  0  0  0  0
 43 60  1  0  0  0  0
 44 37  2  0  0  0  0
 44 43  1  0  0  0  0
 44 61  1  0  0  0  0
M  END
>  <REMARK>
 VINA RESULT:      -8.0      3.243      5.478
  9 active torsions:
  status: ('A' for Active; 'I' for Inactive)
    1  A    between atoms: O_2  and  C_3 
    2  A    between atoms: C_4  and  O_5 
    3  A    between atoms: O_5  and  C_6 
    4  A    between atoms: C_6  and  C_7 
    5  A    between atoms: C_10  and  C_11 
    6  A    between atoms: C_11  and  S_12 
    7  A    between atoms: S_12  and  C_15 
    8  A    between atoms: C_32  and  N_33 
    9  A    between atoms: N_33  and  C_35 

>  <TORSDO>
F 9

$$$$
resistance_project/docking/8faf60323ce63d5a/P00533_T790M/docked/molecule_0009_out.pdbqt
 OpenBabel09142609553D

 61 65  0  0  1  0  0  0  0  0999 V2000
  -47.9540   -4.2400  -20.6460 C   0  0  0  0  0  0  0  0  0  0  0  0
  -49.0900   -3.8030  -20.0040 C   0  0  0  0  0  0  0  0  0  0  0  0
  -50.3500   -3.9310  -20.6070 C   0  0  0  0  0  0  0  0  0  0  0  0
  -50.3740   -4.5180  -21.8750 C   0  0  0  0  0  0  0  0  0  0  0  0
  -51.5670   -4.6330  -22.4540 N   0  0  0  0  0  0  0  0  0  0  0  0
  -52.3960   -4.3030  -21.9610 H   0  0  0  0  0  0  0  0  0  0  0  0
  -51.6990   -5.1850  -23.6950 C   0  0  0  0  0  0  0  0  0  0  0  0
  -50.5760   -5.6220  -24.3370 N   0  0  0  0  0  0  0  0  0  0  0  0
  -50.6520   -6.0380  -25.2650 H   0  0  0  0  0  0  0  0  0  0  0  0
  -49.3750   -5.5060  -23.7540 C   0  0  1  0  0  0  0  0  0  0  0  0
  -49.2180   -4.9520  -22.5050 C   0  0  0  0  0  0  0  0  0  0  0  0
  -47.9650   -4.8230  -21.8990 C   0  0  0  0  0  0  0  0  0  0  0  0
  -49.0340   -3.2230  -18.7410 O   0  0  0  0  0  0  0  0  0  0  0  0
  -48.6140   -1.9280  -18.4880 C   0  0  0  0  0  0  0  0  0  0  0  0
  -49.5680   -0.8530  -18.7600 C   0  0  1  0  0  0  0  0  0  0  0  0
  -49.8240   -0.2220  -19.9470 N   0  0  0  0  0  0  0  0  0  0  0  0
  -50.7940    0.6980  -19.6590 C   0  0  1  0  0  0  0  0  0  0  0  0
  -49.3860   -0.3990  -20.8500 H   0  0  0  0  0  0  0  0  0  0  0  0
  -51.1000    0.6080  -18.3390 N   0  0  0  0  0  0  0  0  0  0  0  0
  -50.3520   -0.3180  -17.8580 O   0  0  0  0  0  0  0  0  0  0  0  0
  -51.7860    1.1650  -17.8310 H   0  0  0  0  0  0  0  0  0  0  0  0
  -51.4460    1.6630  -20.5790 C   0  0  0  0  0  0  0  0  0  0  0  0
  -52.7260    0.7800  -21.4890 S   0  0  0  0  0  0  0  0  0  0  0  0
  -53.1130   -0.3770  -20.5930 O   0  0  0  0  0  0  0  0  0  0  0  0
  -53.9250    1.6380  -21.7060 O   0  0  0  0  0  0  0  0  0  0  0  0
  -51.9960    0.2230  -22.9500 C   0  0  0  0  0  0  0  0  0  0  0  0
  -51.9820    0.9830  -24.0510 N   0  0  0  0  0  0  0  0  0  0  0  0
  -51.4230    0.5970  -25.2210 C   0  0  0  0  0  0  0  0  0  0  0  0
  -52.4150    1.9060  -24.0060 H   0  0  0  0  0  0  0  0  0  0  0  0
  -50.8370   -0.6450  -25.2870 C   0  0  0  0  0  0  0  0  0  0  0  0
  -50.8170   -1.4720  -24.2000 C   0  0  0  0  0  0  0  0  0  0  0  0
  -51.4030   -1.0250  -23.0320 C   0  0  0  0  0  0  0  0  0  0  0  0
  -46.6990   -4.1040  -20.0300 O   0  0  0  0  0  0  0  0  0  0  0  0
  -45.7530   -3.1610  -20.4630 C   0  0  0  0  0  0  0  0  0  0  0  0
  -48.2400   -5.9940  -24.4880 N   0  0  0  0  0  0  0  0  0  0  0  0
  -47.9630   -6.9760  -24.5020 H   0  0  0  0  0  0  0  0  0  0  0  0
  -47.5280   -4.9570  -25.2060 C   0  0  0  0  0  0  0  0  0  0  0  0
  -46.1380   -5.0320  -25.1830 C   0  0  0  0  0  0  0  0  0  0  0  0
  -45.4090   -4.0540  -25.8780 C   0  0  0  0  0  0  0  0  0  0  0  0
  -43.6540   -4.1620  -25.8410 Cl  0  0  0  0  0  0  0  0  0  0  0  0
  -46.0660   -3.0610  -26.5560 C   0  0  0  0  0  0  0  0  0  0  0  0
  -45.0790   -1.8790  -27.4020 Cl  0  0  0  0  0  0  0  0  0  0  0  0
  -47.4690   -2.9730  -26.5870 C   0  0  0  0  0  0  0  0  0  0  0  0
  -48.1710   -3.9670  -25.8810 C   0  0  0  0  0  0  0  0  0  0  0  0
  -50.9614   -4.5258  -19.9610 H   0  0  0  0  0  0  0  0  0  0  0  0
  -52.3548   -6.0250  -23.5988 H   0  0  0  0  0  0  0  0  0  0  0  0
  -47.3503   -4.2283  -22.5419 H   0  0  0  0  0  0  0  0  0  0  0  0
  -48.3508   -1.8710  -17.4524 H   0  0  0  0  0  0  0  0  0  0  0  0
  -47.8066   -1.7607  -19.1699 H   0  0  0  0  0  0  0  0  0  0  0  0
  -51.8840    2.4617  -20.0176 H   0  0  0  0  0  0  0  0  0  0  0  0
  -50.7275    2.0788  -21.2541 H   0  0  0  0  0  0  0  0  0  0  0  0
  -51.4361    1.2197  -26.0439 H   0  0  0  0  0  0  0  0  0  0  0  0
  -50.4058   -0.9572  -26.1711 H   0  0  0  0  0  0  0  0  0  0  0  0
  -49.7913   -1.6833  -23.9803 H   0  0  0  0  0  0  0  0  0  0  0  0
  -51.3986   -1.6361  -22.2004 H   0  0  0  0  0  0  0  0  0  0  0  0
  -44.8752   -3.2315  -19.8553 H   0  0  0  0  0  0  0  0  0  0  0  0
  -46.1661   -2.1774  -20.3801 H   0  0  0  0  0  0  0  0  0  0  0  0
  -45.4969   -3.3555  -21.4835 H   0  0  0  0  0  0  0  0  0  0  0  0
  -45.6565   -5.7862  -24.6689 H   0  0  0  0  0  0  0  0  0  0  0  0
  -47.9566   -2.2212  -27.0990 H   0  0  0  0  0  0  0  0  0  0  0  0
  -49.2027   -3.9442  -25.8752 H   0  0  0  0  0  0  0  0  0  0  0  0
  1 33  1  0  0  0  0
  1  2  2  0  0  0  0
  2 13  1  0  0  0  0
  3  2  1  0  0  0  0
  3 45  1  0  0  0  0
  4  3  1  0  0  0  0
  5  6  1  0  0  0  0
  5  4  1  0  0  0  0
  7  5  1  0  0  0  0
  7 46  1  0  0  0  0
  8 10  1  0  0  0  0
  8  7  1  0  0  0  0
  9  8  1  0  0  0  0
 10 35  1  1  0  0  0
 10 11  1  0  0  0  0
 11 12  1  0  0  0  0
 11  4  2  0  0  0  0
 12  1  1  0  0  0  0
 12 47  1  0  0  0  0
 13 14  1  0  0  0  0
 14 48  1  0  0  0  0
 14 49  1  0  0  0  0
 15 14  1  6  0  0  0
 15 20  1  0  0  0  0
 16 17  1  0  0  0  0
 16 15  1  0  0  0  0
 17 22  1  1  0  0  0
 17 19  1  0  0  0  0
 18 16  1  0  0  0  0
 19 20  1  0  0  0  0
 19 21  1  0  0  0  0
 22 50  1  0  0  0  0
 22 51  1  0  0  0  0
 23 24  2  0  0  0  0
 23 22  1  0  0  0  0
 25 23  2  0  0  0  0
 26 23  1  0  0  0  0
 27 29  1  0  0  0  0
 27 26  1  0  0  0  0
 28 27  1  0  0  0  0
 28 52  1  0  0  0  0
 30 28  2  0  0  0  0
 30 31  1  0  0  0  0
 30 53  1  0  0  0  0
 31 32  1  0  0  0  0
 31 54  1  0  0  0  0
 32 26  2  0  0  0  0
 32 55  1  0  0  0  0
 34 33  1  0  0  0  0
 34 56  1  0  0  0  0
 34 57  1  0  0  0  0
 34 58  1  0  0  0  0
 36 35  1  0  0  0  0
 37 38  1  0  0  0  0
 37 35  1  0  0  0  0
 38 59  1  0  0  0  0
 39 40  1  0  0  0  0
 39 38  2  0  0  0  0
 41 39  1  0  0  0  0
 42 41  1  0  0  0  0
 43 41  2  0  0  0  0
 43 44  1  0  0  0  0
 43 60  1  0  0  0  0
 44 37  2  0  0  0  0
 44 61  1  0  0  0  0
M  END
>  <REMARK>
 VINA RESULT:      -7.9      5.057      8.650
  9 active torsions:
  status: ('A' for Active; 'I' for Inactive)
    1  A    between atoms: O_2  and  C_3 
    2  A    between atoms: C_4  and  O_5 
    3  A    between atoms: O_5  and  C_6 
    4  A    between atoms: C_6  and  C_7 
    5  A    between atoms: C_10  and  C_11 
    6  A    between atoms: C_11  and  S_12 
    7  A    between atoms: S_12  and  C_15 
    8  A    between atoms: C_32  and  N_33 
    9  A    between atoms: N_33  and  C_35 

>  <TORSDO>
F 9

$$$$
resistance_project/docking/8faf60323ce63d5a/P00533_T790M/docked/molecule_0009_out.pdbqt
 OpenBabel09142609553D

 61 65  0  0  1  0  0  0  0  0999 V2000
  -47.2150   -4.0020  -23.0310 C   0  0  0  0  0  0  0  0  0  0  0  0
  -47.3920   -5.3240  -22.6930 C   0  0  0  0  0  0  0  0  0  0  0  0
  -48.6420   -5.9430  -22.8430 C   0  0  0  0  0  0  0  0  0  0  0  0
  -49.6720   -5.1450  -23.3460 C   0  0  0  0  0  0  0  0  0  0  0  0
  -50.8620   -5.7270  -23.4820 N   0  0  0  0  0  0  0  0  0  0  0  0
  -50.9720   -6.7070  -23.2260 H   0  0  0  0  0  0  0  0  0  0  0  0
  -51.9370   -5.0320  -23.9580 C   0  0  0  0  0  0  0  0  0  0  0  0
  -51.7680   -3.7200  -24.2960 N   0  0  0  0  0  0  0  0  0  0  0  0
  -52.5580   -3.1830  -24.6530 H   0  0  0  0  0  0  0  0  0  0  0  0
  -50.5700   -3.1350  -24.1590 C   0  0  1  0  0  0  0  0  0  0  0  0
  -49.4740   -3.8150  -23.6810 C   0  0  0  0  0  0  0  0  0  0  0  0
  -48.2260   -3.2030  -23.5300 C   0  0  0  0  0  0  0  0  0  0  0  0
  -46.3460   -6.0940  -22.1950 O   0  0  0  0  0  0  0  0  0  0  0  0
  -45.9180   -6.0810  -20.8780 C   0  0  0  0  0  0  0  0  0  0  0  0
  -46.8770   -5.6250  -19.8710 C   0  0  2  0  0  0  0  0  0  0  0  0
  -47.1900   -4.3420  -19.5140 N   0  0  0  0  0  0  0  0  0  0  0  0
  -48.1350   -4.4660  -18.5340 C   0  0  1  0  0  0  0  0  0  0  0  0
  -46.8010   -3.4800  -19.8960 H   0  0  0  0  0  0  0  0  0  0  0  0
  -48.3710   -5.7860  -18.3220 N   0  0  0  0  0  0  0  0  0  0  0  0
  -47.6070   -6.4230  -19.1330 O   0  0  0  0  0  0  0  0  0  0  0  0
  -49.0250   -6.1910  -17.6530 H   0  0  0  0  0  0  0  0  0  0  0  0
  -48.8260   -3.3880  -17.7840 C   0  0  0  0  0  0  0  0  0  0  0  0
  -48.1750   -1.8090  -18.3610 S   0  0  0  0  0  0  0  0  0  0  0  0
  -46.7190   -1.8160  -17.9530 O   0  0  0  0  0  0  0  0  0  0  0  0
  -48.2560   -1.7010  -19.8450 O   0  0  0  0  0  0  0  0  0  0  0  0
  -49.0550   -0.5810  -17.5260 C   0  0  0  0  0  0  0  0  0  0  0  0
  -48.6520   -0.1300  -16.3320 N   0  0  0  0  0  0  0  0  0  0  0  0
  -49.3030    0.8290  -15.6360 C   0  0  0  0  0  0  0  0  0  0  0  0
  -47.8080   -0.5320  -15.9240 H   0  0  0  0  0  0  0  0  0  0  0  0
  -50.4410    1.3760  -16.1810 C   0  0  0  0  0  0  0  0  0  0  0  0
  -50.9070    0.9610  -17.3960 C   0  0  0  0  0  0  0  0  0  0  0  0
  -50.2020   -0.0230  -18.0620 C   0  0  0  0  0  0  0  0  0  0  0  0
  -45.9580   -3.3960  -22.8730 O   0  0  0  0  0  0  0  0  0  0  0  0
  -45.8180   -2.0330  -22.5650 C   0  0  0  0  0  0  0  0  0  0  0  0
  -50.4680   -1.7530  -24.5410 N   0  0  0  0  0  0  0  0  0  0  0  0
  -49.9620   -1.4380  -25.3690 H   0  0  0  0  0  0  0  0  0  0  0  0
  -51.1540   -0.8530  -23.6380 C   0  0  0  0  0  0  0  0  0  0  0  0
  -52.1900   -0.1000  -24.1850 C   0  0  0  0  0  0  0  0  0  0  0  0
  -52.8910    0.7760  -23.3410 C   0  0  0  0  0  0  0  0  0  0  0  0
  -54.1980    1.7190  -24.0450 Cl  0  0  0  0  0  0  0  0  0  0  0  0
  -52.5510    0.8730  -22.0180 C   0  0  0  0  0  0  0  0  0  0  0  0
  -53.4800    1.9910  -21.0310 Cl  0  0  0  0  0  0  0  0  0  0  0  0
  -51.5060    0.1200  -21.4530 C   0  0  0  0  0  0  0  0  0  0  0  0
  -50.8230   -0.7490  -22.3240 C   0  0  0  0  0  0  0  0  0  0  0  0
  -48.5175   -6.7719  -23.5081 H   0  0  0  0  0  0  0  0  0  0  0  0
  -52.2799   -5.5420  -24.8339 H   0  0  0  0  0  0  0  0  0  0  0  0
  -48.3465   -2.3739  -22.8644 H   0  0  0  0  0  0  0  0  0  0  0  0
  -45.0631   -5.4398  -20.8230 H   0  0  0  0  0  0  0  0  0  0  0  0
  -45.7298   -7.1065  -20.6374 H   0  0  0  0  0  0  0  0  0  0  0  0
  -48.6400   -3.4971  -16.7360 H   0  0  0  0  0  0  0  0  0  0  0  0
  -49.8824   -3.4381  -17.9466 H   0  0  0  0  0  0  0  0  0  0  0  0
  -48.9540    1.1433  -14.7170 H   0  0  0  0  0  0  0  0  0  0  0  0
  -50.9501    2.1104  -15.6647 H   0  0  0  0  0  0  0  0  0  0  0  0
  -51.9009    0.5938  -17.2465 H   0  0  0  0  0  0  0  0  0  0  0  0
  -50.5390   -0.3496  -18.9811 H   0  0  0  0  0  0  0  0  0  0  0  0
  -44.7788   -1.7888  -22.4919 H   0  0  0  0  0  0  0  0  0  0  0  0
  -46.2993   -1.8269  -21.6318 H   0  0  0  0  0  0  0  0  0  0  0  0
  -46.2692   -1.4448  -23.3366 H   0  0  0  0  0  0  0  0  0  0  0  0
  -52.4358   -0.1837  -25.1838 H   0  0  0  0  0  0  0  0  0  0  0  0
  -51.2542    0.2003  -20.4554 H   0  0  0  0  0  0  0  0  0  0  0  0
  -50.0492   -1.3233  -21.9547 H   0  0  0  0  0  0  0  0  0  0  0  0
  1 33  1  0  0  0  0
  1  2  2  0  0  0  0
  2 13  1  0  0  0  0
  3  2  1  0  0  0  0
  3 45  1  0  0  0  0
  4  3  1  0  0  0  0
  5  4  1  0  0  0  0
  5  6  1  0  0  0  0
  7  5  1  0  0  0  0
  7 46  1  0  0  0  0
  8 10  1  0  0  0  0
  8  7  1  0  0  0  0
  9  8  1  0  0  0  0
 10 35  1  6  0  0  0
 10 11  1  0  0  0  0
 11 12  1  0  0  0  0
 11  4  2  0  0  0  0
 12  1  1  0  0  0  0
 12 47  1  0  0  0  0
 13 14  1  0  0  0  0
 14 48  1  0  0  0  0
 14 49  1  0  0  0  0
 15 14  1  1  0  0  0
 15 16  1  0  0  0  0
 15 20  1  0  0  0  0
 16 17  1  0  0  0  0
 17 19  1  0  0  0  0
 17 22  1  1  0  0  0
 18 16  1  0  0  0  0
 19 21  1  0  0  0  0
 20 19  1  0  0  0  0
 22 50  1  0  0  0  0
 22 51  1  0  0  0  0
 23 24  2  0  0  0  0
 23 22  1  0  0  0  0
 23 26  1  0  0  0  0
 25 23  2  0  0  0  0
 26 27  1  0  0  0  0
 27 29  1  0  0  0  0
 27 28  1  0  0  0  0
 28 52  1  0  0  0  0
 30 28  2  0  0  0  0
 30 53  1  0  0  0  0
 31 30  1  0  0  0  0
 31 54  1  0  0  0  0
 32 26  2  0  0  0  0
 32 31  1  0  0  0  0
 32 55  1  0  0  0  0
 33 34  1  0  0  0  0
 34 56  1  0  0  0  0
 34 57  1  0  0  0  0
 34 58  1  0  0  0  0
 35 37  1  0  0  0  0
 36 35  1  0  0  0  0
 37 44  1  0  0  0  0
 38 37  2  0  0  0  0
 38 39  1  0  0  0  0
 38 59  1  0  0  0  0
 39 41  2  0  0  0  0
 40 39  1  0  0  0  0
 41 43  1  0  0  0  0
 41 42  1  0  0  0  0
 43 60  1  0  0  0  0
 44 43  2  0  0  0  0
 44 61  1  0  0  0  0
M  END
>  <REMARK>
 VINA RESULT:      -7.9      3.639      7.671
  9 active torsions:
  status: ('A' for Active; 'I' for Inactive)
    1  A    between atoms: O_2  and  C_3 
    2  A    between atoms: C_4  and  O_5 
    3  A    between atoms: O_5  and  C_6 
    4  A    between atoms: C_6  and  C_7 
    5  A    between atoms: C_10  and  C_11 
    6  A    between atoms: C_11  and  S_12 
    7  A    between atoms: S_12  and  C_15 
    8  A    between atoms: C_32  and  N_33 
    9  A    between atoms: N_33  and  C_35 

>  <TORSDO>
F 9

$$$$
resistance_project/docking/8faf60323ce63d5a/P00533_T790M/docked/molecule_0009_out.pdbqt
 OpenBabel09142609553D

 61 65  0  0  1  0  0  0  0  0999 V2000
  -51.1980   -0.2900  -18.8250 C   0  0  0  0  0  0  0  0  0  0  0  0
  -52.0900    0.5790  -19.4100 C   0  0  0  0  0  0  0  0  0  0  0  0
  -52.5300    1.7240  -18.7310 C   0  0  0  0  0  0  0  0  0  0  0  0
  -52.0140    1.9190  -17.4470 C   0  0  0  0  0  0  0  0  0  0  0  0
  -52.4350    3.0020  -16.7960 N   0  0  0  0  0  0  0  0  0  0  0  0
  -53.0960    3.6320  -17.2480 H   0  0  0  0  0  0  0  0  0  0  0  0
  -51.9970    3.2810  -15.5340 C   0  0  0  0  0  0  0  0  0  0  0  0
  -51.1110    2.4230  -14.9460 N   0  0  0  0  0  0  0  0  0  0  0  0
  -50.7720    2.6130  -14.0030 H   0  0  0  0  0  0  0  0  0  0  0  0
  -50.6870    1.3350  -15.6020 C   0  0  1  0  0  0  0  0  0  0  0  0
  -51.1160    1.0340  -16.8740 C   0  0  0  0  0  0  0  0  0  0  0  0
  -50.6800   -0.1070  -17.5560 C   0  0  0  0  0  0  0  0  0  0  0  0
  -52.5860    0.3570  -20.6910 O   0  0  0  0  0  0  0  0  0  0  0  0
  -52.8190    1.3520  -21.6270 C   0  0  0  0  0  0  0  0  0  0  0  0
  -52.6960    0.9800  -23.0370 C   0  0  2  0  0  0  0  0  0  0  0  0
  -51.6140    0.4490  -23.6850 N   0  0  0  0  0  0  0  0  0  0  0  0
  -52.0190    0.2910  -24.9820 C   0  0  1  0  0  0  0  0  0  0  0  0
  -50.7030    0.2210  -23.2880 H   0  0  0  0  0  0  0  0  0  0  0  0
  -53.3040    0.7160  -25.0910 N   0  0  0  0  0  0  0  0  0  0  0  0
  -53.6530    1.1110  -23.9200 O   0  0  0  0  0  0  0  0  0  0  0  0
  -53.8760    0.7230  -25.9340 H   0  0  0  0  0  0  0  0  0  0  0  0
  -51.2420   -0.2450  -26.1270 C   0  0  0  0  0  0  0  0  0  0  0  0
  -51.4250   -2.0380  -26.1270 S   0  0  0  0  0  0  0  0  0  0  0  0
  -52.3810   -2.3320  -24.9920 O   0  0  0  0  0  0  0  0  0  0  0  0
  -52.0290   -2.5200  -27.4000 O   0  0  0  0  0  0  0  0  0  0  0  0
  -49.8580   -2.6910  -25.8100 C   0  0  0  0  0  0  0  0  0  0  0  0
  -49.3450   -3.6620  -26.5750 N   0  0  0  0  0  0  0  0  0  0  0  0
  -48.1240   -4.2090  -26.3710 C   0  0  0  0  0  0  0  0  0  0  0  0
  -49.9040   -4.0100  -27.3540 H   0  0  0  0  0  0  0  0  0  0  0  0
  -47.3660   -3.7430  -25.3240 C   0  0  0  0  0  0  0  0  0  0  0  0
  -47.8300   -2.7540  -24.5040 C   0  0  0  0  0  0  0  0  0  0  0  0
  -49.0830   -2.2330  -24.7590 C   0  0  0  0  0  0  0  0  0  0  0  0
  -50.7690   -1.4340  -19.5170 O   0  0  0  0  0  0  0  0  0  0  0  0
  -49.7950   -1.3750  -20.5270 C   0  0  0  0  0  0  0  0  0  0  0  0
  -49.7490    0.4840  -14.9230 N   0  0  0  0  0  0  0  0  0  0  0  0
  -48.7410    0.6380  -14.9360 H   0  0  0  0  0  0  0  0  0  0  0  0
  -50.3760   -0.6150  -14.2150 C   0  0  0  0  0  0  0  0  0  0  0  0
  -51.3070   -0.2700  -13.2390 C   0  0  0  0  0  0  0  0  0  0  0  0
  -51.9480   -1.3040  -12.5390 C   0  0  0  0  0  0  0  0  0  0  0  0
  -53.1220   -0.8530  -11.3100 Cl  0  0  0  0  0  0  0  0  0  0  0  0
  -51.6530   -2.6110  -12.8230 C   0  0  0  0  0  0  0  0  0  0  0  0
  -52.5020   -3.8430  -11.9020 Cl  0  0  0  0  0  0  0  0  0  0  0  0
  -50.7140   -2.9730  -13.8050 C   0  0  0  0  0  0  0  0  0  0  0  0
  -50.0890   -1.9150  -14.4890 C   0  0  0  0  0  0  0  0  0  0  0  0
  -53.5952    1.6651  -18.6488 H   0  0  0  0  0  0  0  0  0  0  0  0
  -52.8599    3.3252  -14.9029 H   0  0  0  0  0  0  0  0  0  0  0  0
  -49.6150   -0.0498  -17.6423 H   0  0  0  0  0  0  0  0  0  0  0  0
  -53.8148    1.7123  -21.4740 H   0  0  0  0  0  0  0  0  0  0  0  0
  -52.0474    2.0747  -21.4621 H   0  0  0  0  0  0  0  0  0  0  0  0
  -51.6186    0.1592  -27.0433 H   0  0  0  0  0  0  0  0  0  0  0  0
  -50.2105    0.0251  -26.0375 H   0  0  0  0  0  0  0  0  0  0  0  0
  -47.7708   -4.9580  -26.9869 H   0  0  0  0  0  0  0  0  0  0  0  0
  -46.4314   -4.1466  -25.1545 H   0  0  0  0  0  0  0  0  0  0  0  0
  -47.1324   -1.9443  -24.5564 H   0  0  0  0  0  0  0  0  0  0  0  0
  -49.4503   -1.4842  -24.1513 H   0  0  0  0  0  0  0  0  0  0  0  0
  -49.6233   -2.3574  -20.9147 H   0  0  0  0  0  0  0  0  0  0  0  0
  -48.8838   -0.9873  -20.1216 H   0  0  0  0  0  0  0  0  0  0  0  0
  -50.1358   -0.7354  -21.3142 H   0  0  0  0  0  0  0  0  0  0  0  0
  -51.5200    0.7191  -13.0358 H   0  0  0  0  0  0  0  0  0  0  0  0
  -50.4956   -3.9601  -14.0123 H   0  0  0  0  0  0  0  0  0  0  0  0
  -49.3929   -2.1318  -15.2194 H   0  0  0  0  0  0  0  0  0  0  0  0
  1 12  1  0  0  0  0
  2  1  2  0  0  0  0
  2  3  1  0  0  0  0
  3  4  1  0  0  0  0
  3 45  1  0  0  0  0
  4 11  2  0  0  0  0
  4  5  1  0  0  0  0
  5  7  1  0  0  0  0
  6  5  1  0  0  0  0
  7  8  1  0  0  0  0
  7 46  1  0  0  0  0
  8  9  1  0  0  0  0
 10  8  1  0  0  0  0
 10 35  1  6  0  0  0
 11 10  1  0  0  0  0
 12 11  1  0  0  0  0
 12 47  1  0  0  0  0
 13  2  1  0  0  0  0
 14 13  1  0  0  0  0
 14 48  1  0  0  0  0
 14 49  1  0  0  0  0
 15 14  1  6  0  0  0
 16 18  1  0  0  0  0
 16 15  1  0  0  0  0
 17 22  1  6  0  0  0
 17 16  1  0  0  0  0
 19 17  1  0  0  0  0
 19 20  1  0  0  0  0
 20 15  1  0  0  0  0
 21 19  1  0  0  0  0
 22 50  1  0  0  0  0
 22 51  1  0  0  0  0
 23 22  1  0  0  0  0
 23 26  1  0  0  0  0
 23 24  2  0  0  0  0
 25 23  2  0  0  0  0
 26 32  2  0  0  0  0
 27 28  1  0  0  0  0
 27 26  1  0  0  0  0
 28 30  2  0  0  0  0
 28 52  1  0  0  0  0
 29 27  1  0  0  0  0
 30 31  1  0  0  0  0
 30 53  1  0  0  0  0
 31 54  1  0  0  0  0
 32 31  1  0  0  0  0
 32 55  1  0  0  0  0
 33  1  1  0  0  0  0
 34 33  1  0  0  0  0
 34 56  1  0  0  0  0
 34 57  1  0  0  0  0
 34 58  1  0  0  0  0
 35 37  1  0  0  0  0
 36 35  1  0  0  0  0
 37 38  1  0  0  0  0
 38 39  2  0  0  0  0
 38 59  1  0  0  0  0
 39 40  1  0  0  0  0
 41 39  1  0  0  0  0
 41 42  1  0  0  0  0
 43 41  2  0  0  0  0
 43 60  1  0  0  0  0
 44 37  2  0  0  0  0
 44 43  1  0  0  0  0
 44 61  1  0  0  0  0
M  END
>  <REMARK>
 VINA RESULT:      -7.8      2.997      5.220
  9 active torsions:
  status: ('A' for Active; 'I' for Inactive)
    1  A    between atoms: O_2  and  C_3 
    2  A    between atoms: C_4  and  O_5 
    3  A    between atoms: O_5  and  C_6 
    4  A    between atoms: C_6  and  C_7 
    5  A    between atoms: C_10  and  C_11 
    6  A    between atoms: C_11  and  S_12 
    7  A    between atoms: S_12  and  C_15 
    8  A    between atoms: C_32  and  N_33 
    9  A    between atoms: N_33  and  C_35 

>  <TORSDO>
F 9

$$$$
resistance_project/docking/8faf60323ce63d5a/P00533_T790M/docked/molecule_0009_out.pdbqt
 OpenBabel09142609553D

 60 64  0  0  1  0  0  0  0  0999 V2000
  -51.1840   -0.3890  -19.5960 C   0  0  0  0  0  0  0  0  0  0  0  0
  -52.1020    0.4840  -20.1310 C   0  0  0  0  0  0  0  0  0  0  0  0
  -52.5520    1.5930  -19.3990 C   0  0  0  0  0  0  0  0  0  0  0  0
  -52.0170    1.7480  -18.1170 C   0  0  0  0  0  0  0  0  0  0  0  0
  -52.4470    2.7950  -17.4160 N   0  0  0  0  0  0  0  0  0  0  0  0
  -53.1290    3.4290  -17.8310 H   0  0  0  0  0  0  0  0  0  0  0  0
  -51.9920    3.0320  -16.1510 C   0  0  0  0  0  0  0  0  0  0  0  0
  -51.0790    2.1700  -15.6140 N   0  0  0  0  0  0  0  0  0  0  0  0
  -50.7270    2.3280  -14.6700 H   0  0  0  0  0  0  0  0  0  0  0  0
  -50.6460    1.1170  -16.3200 C   0  0  1  0  0  0  0  0  0  0  0  0
  -51.0920    0.8580  -17.5960 C   0  0  0  0  0  0  0  0  0  0  0  0
  -50.6470   -0.2460  -18.3300 C   0  0  0  0  0  0  0  0  0  0  0  0
  -52.6180    0.3050  -21.4100 O   0  0  0  0  0  0  0  0  0  0  0  0
  -52.0340    0.7910  -22.5690 C   0  0  0  0  0  0  0  0  0  0  0  0
  -51.5600   -0.1960  -23.5400 C   0  0  0  0  0  0  0  0  0  0  0  0
  -51.4230   -1.5480  -23.3800 N   0  0  0  0  0  0  0  0  0  0  0  0
  -50.9440   -2.0000  -24.5790 C   0  0  2  0  0  0  0  0  0  0  0  0
  -51.6310   -2.0990  -22.5480 H   0  0  0  0  0  0  0  0  0  0  0  0
  -50.8060   -0.9430  -25.4190 N   0  0  0  0  0  0  0  0  0  0  0  0
  -51.1810    0.0930  -24.7590 O   0  0  0  0  0  0  0  0  0  0  0  0
  -50.4710   -0.9660  -26.3810 H   0  0  0  0  0  0  0  0  0  0  0  0
  -50.6100   -3.3940  -24.9660 C   0  0  0  0  0  0  0  0  0  0  0  0
  -48.8540   -3.6480  -24.6510 S   0  0  0  0  0  0  0  0  0  0  0  0
  -48.4100   -4.6430  -25.7000 O   0  0  0  0  0  0  0  0  0  0  0  0
  -48.0830   -2.3860  -24.8310 O   0  0  0  0  0  0  0  0  0  0  0  0
  -48.7320   -4.3160  -23.0630 C   0  0  0  0  0  0  0  0  0  0  0  0
  -49.4150   -5.4130  -22.7190 N   0  0  0  0  0  0  0  0  0  0  0  0
  -49.3560   -5.9770  -21.4900 C   0  0  0  0  0  0  0  0  0  0  0  0
  -50.0140   -5.8490  -23.4200 H   0  0  0  0  0  0  0  0  0  0  0  0
  -48.5500   -5.3940  -20.5410 C   0  0  0  0  0  0  0  0  0  0  0  0
  -47.8260   -4.2720  -20.8270 C   0  0  0  0  0  0  0  0  0  0  0  0
  -47.9260   -3.7390  -22.0970 C   0  0  0  0  0  0  0  0  0  0  0  0
  -50.7450   -1.4950  -20.3410 O   0  0  0  0  0  0  0  0  0  0  0  0
  -51.1380   -2.8080  -20.0310 C   0  0  0  0  0  0  0  0  0  0  0  0
  -49.6810    0.2580  -15.6910 N   0  0  0  0  0  0  0  0  0  0  0  0
  -48.6730    0.3860  -15.7850 H   0  0  0  0  0  0  0  0  0  0  0  0
  -50.2770   -0.8070  -14.9110 C   0  0  0  0  0  0  0  0  0  0  0  0
  -51.0280   -0.4160  -13.8050 C   0  0  0  0  0  0  0  0  0  0  0  0
  -51.6350   -1.4150  -13.0290 C   0  0  0  0  0  0  0  0  0  0  0  0
  -52.5800   -0.9070  -11.6350 Cl  0  0  0  0  0  0  0  0  0  0  0  0
  -51.4840   -2.7340  -13.3670 C   0  0  0  0  0  0  0  0  0  0  0  0
  -52.2790   -3.9210  -12.3440 Cl  0  0  0  0  0  0  0  0  0  0  0  0
  -50.7280   -3.1430  -14.4810 C   0  0  0  0  0  0  0  0  0  0  0  0
  -50.1320   -2.1180  -15.2380 C   0  0  0  0  0  0  0  0  0  0  0  0
  -53.6142    1.5095  -19.3009 H   0  0  0  0  0  0  0  0  0  0  0  0
  -52.8442    3.0327  -15.5039 H   0  0  0  0  0  0  0  0  0  0  0  0
  -49.5850   -0.1645  -18.4322 H   0  0  0  0  0  0  0  0  0  0  0  0
  -51.9376    1.8042  -22.7398 H   0  0  0  0  0  0  0  0  0  0  0  0
  -51.1873   -4.0815  -24.3839 H   0  0  0  0  0  0  0  0  0  0  0  0
  -50.8316   -3.5580  -25.9999 H   0  0  0  0  0  0  0  0  0  0  0  0
  -49.9029   -6.8242  -21.2706 H   0  0  0  0  0  0  0  0  0  0  0  0
  -48.4912   -5.8104  -19.5986 H   0  0  0  0  0  0  0  0  0  0  0  0
  -48.1324   -3.5123  -20.1387 H   0  0  0  0  0  0  0  0  0  0  0  0
  -47.3872   -2.8906  -22.3313 H   0  0  0  0  0  0  0  0  0  0  0  0
  -50.6882   -3.4879  -20.7240 H   0  0  0  0  0  0  0  0  0  0  0  0
  -52.2032   -2.8860  -20.0951 H   0  0  0  0  0  0  0  0  0  0  0  0
  -50.8218   -3.0499  -19.0378 H   0  0  0  0  0  0  0  0  0  0  0  0
  -51.1351    0.5815  -13.5629 H   0  0  0  0  0  0  0  0  0  0  0  0
  -50.6170   -4.1387  -14.7287 H   0  0  0  0  0  0  0  0  0  0  0  0
  -49.5685   -2.3688  -16.0654 H   0  0  0  0  0  0  0  0  0  0  0  0
  1 12  1  0  0  0  0
  2  1  2  0  0  0  0
  2  3  1  0  0  0  0
  3  4  1  0  0  0  0
  3 45  1  0  0  0  0
  4 11  2  0  0  0  0
  4  5  1  0  0  0  0
  5  7  1  0  0  0  0
  6  5  1  0  0  0  0
  7  8  1  0  0  0  0
  7 46  1  0  0  0  0
  8  9  1  0  0  0  0
 10 35  1  6  0  0  0
 10  8  1  0  0  0  0
 11 10  1  0  0  0  0
 12 11  1  0  0  0  0
 12 47  1  0  0  0  0
 13  2  1  0  0  0  0
 14 13  1  0  0  0  0
 14 48  1  0  0  0  0
 15 16  1  0  0  0  0
 15 14  2  0  0  0  0
 16 18  1  0  0  0  0
 17 22  1  6  0  0  0
 17 16  1  0  0  0  0
 19 20  1  0  0  0  0
 19 17  1  0  0  0  0
 20 15  1  0  0  0  0
 21 19  1  0  0  0  0
 22 23  1  0  0  0  0
 22 49  1  0  0  0  0
 22 50  1  0  0  0  0
 23 26  1  0  0  0  0
 24 23  2  0  0  0  0
 25 23  2  0  0  0  0
 26 27  1  0  0  0  0
 26 32  2  0  0  0  0
 27 28  1  0  0  0  0
 28 30  2  0  0  0  0
 28 51  1  0  0  0  0
 29 27  1  0  0  0  0
 30 52  1  0  0  0  0
 31 30  1  0  0  0  0
 31 53  1  0  0  0  0
 32 31  1  0  0  0  0
 32 54  1  0  0  0  0
 33 34  1  0  0  0  0
 33  1  1  0  0  0  0
 34 55  1  0  0  0  0
 34 56  1  0  0  0  0
 34 57  1  0  0  0  0
 35 37  1  0  0  0  0
 36 35  1  0  0  0  0
 37 38  1  0  0  0  0
 38 39  2  0  0  0  0
 38 58  1  0  0  0  0
 39 40  1  0  0  0  0
 41 39  1  0  0  0  0
 41 42  1  0  0  0  0
 43 41  2  0  0  0  0
 43 59  1  0  0  0  0
 44 37  2  0  0  0  0
 44 43  1  0  0  0  0
 44 60  1  0  0  0  0
M  END
>  <REMARK>
 VINA RESULT:      -7.8      2.893      5.180
  9 active torsions:
  status: ('A' for Active; 'I' for Inactive)
    1  A    between atoms: O_2  and  C_3 
    2  A    between atoms: C_4  and  O_5 
    3  A    between atoms: O_5  and  C_6 
    4  A    between atoms: C_6  and  C_7 
    5  A    between atoms: C_10  and  C_11 
    6  A    between atoms: C_11  and  S_12 
    7  A    between atoms: S_12  and  C_15 
    8  A    between atoms: C_32  and  N_33 
    9  A    between atoms: N_33  and  C_35 

>  <TORSDO>
F 9

$$$$
