resistance_project/docking/8faf60323ce63d5a/P00533_T790M/docked/molecule_0006_out.pdbqt
 OpenBabel09142609533D

 51 53  0  0  0  0  0  0  0  0999 V2000
  -51.5430    1.2870  -18.3140 C   0  0  0  0  0  0  0  0  0  0  0  0
  -52.6570    1.7490  -19.0080 C   0  0  0  0  0  0  0  0  0  0  0  0
  -52.7860    1.5020  -20.3420 C   0  0  0  0  0  0  0  0  0  0  0  0
  -51.8030    0.7890  -21.0000 C   0  0  0  0  0  0  0  0  0  0  0  0
  -50.6870    0.3200  -20.3220 C   0  0  0  0  0  0  0  0  0  0  0  0
  -50.5590    0.5730  -18.9680 C   0  0  0  0  0  0  0  0  0  0  0  0
  -51.9800    0.5770  -22.3530 C   0  0  0  0  0  0  0  0  0  0  0  0
  -53.0870    1.0640  -22.9780 N   0  0  0  0  0  0  0  0  0  0  0  0
  -53.2070    0.9020  -23.9780 H   0  0  0  0  0  0  0  0  0  0  0  0
  -54.0240    1.7540  -22.3060 C   0  0  0  0  0  0  0  0  0  0  0  0
  -53.8690    1.9710  -20.9820 N   0  0  0  0  0  0  0  0  0  0  0  0
  -54.5770    2.4940  -20.4660 H   0  0  0  0  0  0  0  0  0  0  0  0
  -49.4410    0.1280  -18.2020 N   0  0  0  0  0  0  0  0  0  0  0  0
  -49.4100   -1.1770  -17.6190 C   0  0  0  0  0  0  0  0  0  0  0  0
  -50.3320   -2.0180  -17.7640 O   0  0  0  0  0  0  0  0  0  0  0  0
  -48.6470    0.7530  -18.0670 H   0  0  0  0  0  0  0  0  0  0  0  0
  -48.2600   -1.5370  -16.8290 C   0  0  0  0  0  0  0  0  0  0  0  0
  -47.2860   -1.8630  -16.1570 C   0  0  0  0  0  0  0  0  0  0  0  0
  -46.1160   -2.2290  -15.3570 C   0  0  0  0  0  0  0  0  0  0  0  0
  -44.9230   -2.0310  -16.1540 N   0  0  0  0  0  0  0  0  0  0  0  0
  -43.8020   -1.9420  -15.2380 C   0  0  0  0  0  0  0  0  0  0  0  0
  -44.7380   -3.2170  -16.9660 C   0  0  0  0  0  0  0  0  0  0  0  0
  -51.4250    1.5450  -16.9600 O   0  0  0  0  0  0  0  0  0  0  0  0
  -52.0060    2.7030  -16.4030 C   0  0  0  0  0  0  0  0  0  0  0  0
  -51.0060   -0.1660  -23.1150 N   0  0  0  0  0  0  0  0  0  0  0  0
  -50.1970    0.3090  -23.5160 H   0  0  0  0  0  0  0  0  0  0  0  0
  -51.1820   -1.5850  -23.3070 C   0  0  0  0  0  0  0  0  0  0  0  0
  -50.7660   -2.5110  -22.3930 C   0  0  0  0  0  0  0  0  0  0  0  0
  -50.9720   -3.8480  -22.6840 C   0  0  0  0  0  0  0  0  0  0  0  0
  -50.4620   -5.0790  -21.5490 Cl  0  0  0  0  0  0  0  0  0  0  0  0
  -51.5720   -4.2750  -23.8490 C   0  0  0  0  0  0  0  0  0  0  0  0
  -51.7660   -5.6050  -24.1250 F   0  0  0  0  0  0  0  0  0  0  0  0
  -51.9900   -3.3310  -24.7670 C   0  0  0  0  0  0  0  0  0  0  0  0
  -51.7850   -2.0180  -24.4740 C   0  0  0  0  0  0  0  0  0  0  0  0
  -53.3884    2.2807  -18.5106 H   0  0  0  0  0  0  0  0  0  0  0  0
  -49.8298    0.7452  -20.8009 H   0  0  0  0  0  0  0  0  0  0  0  0
  -54.9468    1.2265  -22.4289 H   0  0  0  0  0  0  0  0  0  0  0  0
  -46.1870   -3.2561  -15.0656 H   0  0  0  0  0  0  0  0  0  0  0  0
  -46.0713   -1.6187  -14.4792 H   0  0  0  0  0  0  0  0  0  0  0  0
  -42.8989   -1.7949  -15.7927 H   0  0  0  0  0  0  0  0  0  0  0  0
  -43.7301   -2.8479  -14.6732 H   0  0  0  0  0  0  0  0  0  0  0  0
  -43.9499   -1.1175  -14.5723 H   0  0  0  0  0  0  0  0  0  0  0  0
  -45.5526   -3.3091  -17.6536 H   0  0  0  0  0  0  0  0  0  0  0  0
  -44.7051   -4.0801  -16.3344 H   0  0  0  0  0  0  0  0  0  0  0  0
  -43.8197   -3.1375  -17.5095 H   0  0  0  0  0  0  0  0  0  0  0  0
  -51.8104    2.7297  -15.3514 H   0  0  0  0  0  0  0  0  0  0  0  0
  -53.0629    2.6869  -16.5689 H   0  0  0  0  0  0  0  0  0  0  0  0
  -51.5855    3.5711  -16.8661 H   0  0  0  0  0  0  0  0  0  0  0  0
  -50.3120   -2.2223  -21.5124 H   0  0  0  0  0  0  0  0  0  0  0  0
  -52.4446   -3.6134  -25.6494 H   0  0  0  0  0  0  0  0  0  0  0  0
  -52.0952   -1.3094  -25.1572 H   0  0  0  0  0  0  0  0  0  0  0  0
  1 23  1  0  0  0  0
  2  1  1  0  0  0  0
  2 35  1  0  0  0  0
  3  2  2  0  0  0  0
  4  3  1  0  0  0  0
  4  5  1  0  0  0  0
  5  6  1  0  0  0  0
  5 36  1  0  0  0  0
  6  1  2  0  0  0  0
  6 13  1  0  0  0  0
  7  4  2  0  0  0  0
  8  7  1  0  0  0  0
  8 10  1  0  0  0  0
  9  8  1  0  0  0  0
 10 11  1  0  0  0  0
 10 37  1  0  0  0  0
 11 12  1  0  0  0  0
 11  3  1  0  0  0  0
 13 16  1  0  0  0  0
 13 14  1  0  0  0  0
 14 17  1  0  0  0  0
 15 14  2  0  0  0  0
 17 18  3  0  0  0  0
 18 19  1  0  0  0  0
 19 38  1  0  0  0  0
 19 39  1  0  0  0  0
 20 19  1  0  0  0  0
 20 21  1  0  0  0  0
 21 40  1  0  0  0  0
 21 41  1  0  0  0  0
 21 42  1  0  0  0  0
 22 20  1  0  0  0  0
 22 43  1  0  0  0  0
 22 44  1  0  0  0  0
 22 45  1  0  0  0  0
 23 24  1  0  0  0  0
 24 46  1  0  0  0  0
 24 47  1  0  0  0  0
 24 48  1  0  0  0  0
 25  7  1  0  0  0  0
 26 25  1  0  0  0  0
 27 25  1  0  0  0  0
 27 28  2  0  0  0  0
 28 49  1  0  0  0  0
 29 28  1  0  0  0  0
 29 30  1  0  0  0  0
 31 29  2  0  0  0  0
 32 31  1  0  0  0  0
 33 34  2  0  0  0  0
 33 31  1  0  0  0  0
 33 50  1  0  0  0  0
 34 27  1  0  0  0  0
 34 51  1  0  0  0  0
M  END
>  <MODEL>
1

>  <REMARK>
 VINA RESULT:      -7.1      0.000      0.000
  7 active torsions:
  status: ('A' for Active; 'I' for Inactive)
    1  A    between atoms: O_2  and  C_3 
    2  A    between atoms: C_8  and  N_9 
       I    between atoms: N_9  and  C_11 
    3  A    between atoms: C_11  and  C_13 
    4  A    between atoms: C_14  and  C_15 
    5  A    between atoms: C_15  and  N_16 
    6  A    between atoms: C_19  and  N_20 
    7  A    between atoms: N_20  and  C_22 

>  <TORSDO>
F 7

$$$$
resistance_project/docking/8faf60323ce63d5a/P00533_T790M/docked/molecule_0006_out.pdbqt
 OpenBabel09142609533D

 51 53  0  0  0  0  0  0  0  0999 V2000
  -50.8000    1.0960  -16.8970 C   0  0  0  0  0  0  0  0  0  0  0  0
  -51.9260    1.5890  -17.5490 C   0  0  0  0  0  0  0  0  0  0  0  0
  -52.0850    1.3950  -18.8880 C   0  0  0  0  0  0  0  0  0  0  0  0
  -51.1200    0.7030  -19.5950 C   0  0  0  0  0  0  0  0  0  0  0  0
  -49.9930    0.2030  -18.9600 C   0  0  0  0  0  0  0  0  0  0  0  0
  -49.8340    0.4040  -17.5990 C   0  0  0  0  0  0  0  0  0  0  0  0
  -51.3280    0.5440  -20.9500 C   0  0  0  0  0  0  0  0  0  0  0  0
  -52.4450    1.0590  -21.5320 N   0  0  0  0  0  0  0  0  0  0  0  0
  -52.5870    0.9370  -22.5350 H   0  0  0  0  0  0  0  0  0  0  0  0
  -53.3640    1.7270  -20.8140 C   0  0  0  0  0  0  0  0  0  0  0  0
  -53.1790    1.8930  -19.4860 N   0  0  0  0  0  0  0  0  0  0  0  0
  -53.8730    2.3980  -18.9360 H   0  0  0  0  0  0  0  0  0  0  0  0
  -48.7030   -0.0760  -16.8760 N   0  0  0  0  0  0  0  0  0  0  0  0
  -48.6840   -1.3850  -16.3050 C   0  0  0  0  0  0  0  0  0  0  0  0
  -49.6310   -2.2020  -16.4240 O   0  0  0  0  0  0  0  0  0  0  0  0
  -47.8890    0.5290  -16.7630 H   0  0  0  0  0  0  0  0  0  0  0  0
  -47.5170   -1.7800  -15.5570 C   0  0  0  0  0  0  0  0  0  0  0  0
  -46.5130   -2.1200  -14.9370 C   0  0  0  0  0  0  0  0  0  0  0  0
  -45.3260   -2.5170  -14.1770 C   0  0  0  0  0  0  0  0  0  0  0  0
  -45.0720   -3.9240  -14.4090 N   0  0  0  0  0  0  0  0  0  0  0  0
  -43.6940   -4.1800  -14.0340 C   0  0  0  0  0  0  0  0  0  0  0  0
  -45.9230   -4.6770  -13.5100 C   0  0  0  0  0  0  0  0  0  0  0  0
  -50.6520    1.3020  -15.5380 O   0  0  0  0  0  0  0  0  0  0  0  0
  -51.4850    0.6290  -14.6210 C   0  0  0  0  0  0  0  0  0  0  0  0
  -50.3740   -0.1740  -21.7620 N   0  0  0  0  0  0  0  0  0  0  0  0
  -49.4280    0.1880  -21.8820 H   0  0  0  0  0  0  0  0  0  0  0  0
  -50.7660   -1.4060  -22.4010 C   0  0  0  0  0  0  0  0  0  0  0  0
  -51.1730   -1.4650  -23.7040 C   0  0  0  0  0  0  0  0  0  0  0  0
  -51.5420   -2.6970  -24.2140 C   0  0  0  0  0  0  0  0  0  0  0  0
  -52.0700   -2.8330  -25.8770 Cl  0  0  0  0  0  0  0  0  0  0  0  0
  -51.5150   -3.8530  -23.4650 C   0  0  0  0  0  0  0  0  0  0  0  0
  -51.8870   -5.0680  -23.9840 F   0  0  0  0  0  0  0  0  0  0  0  0
  -51.1010   -3.7840  -22.1490 C   0  0  0  0  0  0  0  0  0  0  0  0
  -50.7390   -2.5690  -21.6540 C   0  0  0  0  0  0  0  0  0  0  0  0
  -52.6440    2.1040  -17.0158 H   0  0  0  0  0  0  0  0  0  0  0  0
  -49.1438    0.6415  -19.4411 H   0  0  0  0  0  0  0  0  0  0  0  0
  -54.2918    1.2083  -20.9365 H   0  0  0  0  0  0  0  0  0  0  0  0
  -45.4943   -2.3492  -13.1337 H   0  0  0  0  0  0  0  0  0  0  0  0
  -44.4826   -1.9387  -14.4918 H   0  0  0  0  0  0  0  0  0  0  0  0
  -43.0406   -3.6351  -14.6830 H   0  0  0  0  0  0  0  0  0  0  0  0
  -43.4898   -5.2269  -14.1193 H   0  0  0  0  0  0  0  0  0  0  0  0
  -43.5353   -3.8668  -13.0232 H   0  0  0  0  0  0  0  0  0  0  0  0
  -46.9485   -4.5070  -13.7636 H   0  0  0  0  0  0  0  0  0  0  0  0
  -45.7473   -4.3600  -12.5033 H   0  0  0  0  0  0  0  0  0  0  0  0
  -45.7017   -5.7200  -13.5993 H   0  0  0  0  0  0  0  0  0  0  0  0
  -51.2219    0.9147  -13.6240 H   0  0  0  0  0  0  0  0  0  0  0  0
  -51.3596   -0.4276  -14.7342 H   0  0  0  0  0  0  0  0  0  0  0  0
  -52.5057    0.8892  -14.8089 H   0  0  0  0  0  0  0  0  0  0  0  0
  -51.2042   -0.6161  -24.2901 H   0  0  0  0  0  0  0  0  0  0  0  0
  -51.0672   -4.6294  -21.5581 H   0  0  0  0  0  0  0  0  0  0  0  0
  -50.4287   -2.5130  -20.6714 H   0  0  0  0  0  0  0  0  0  0  0  0
  1 23  1  0  0  0  0
  2  1  1  0  0  0  0
  2 35  1  0  0  0  0
  3  2  2  0  0  0  0
  4  5  1  0  0  0  0
  4  3  1  0  0  0  0
  5  6  1  0  0  0  0
  5 36  1  0  0  0  0
  6  1  2  0  0  0  0
  6 13  1  0  0  0  0
  7  4  2  0  0  0  0
  8  7  1  0  0  0  0
  8 10  1  0  0  0  0
  9  8  1  0  0  0  0
 10 11  1  0  0  0  0
 10 37  1  0  0  0  0
 11 12  1  0  0  0  0
 11  3  1  0  0  0  0
 13 16  1  0  0  0  0
 13 14  1  0  0  0  0
 14 17  1  0  0  0  0
 15 14  2  0  0  0  0
 17 18  3  0  0  0  0
 18 19  1  0  0  0  0
 19 38  1  0  0  0  0
 19 39  1  0  0  0  0
 20 19  1  0  0  0  0
 20 21  1  0  0  0  0
 20 22  1  0  0  0  0
 21 40  1  0  0  0  0
 21 41  1  0  0  0  0
 21 42  1  0  0  0  0
 22 43  1  0  0  0  0
 22 44  1  0  0  0  0
 22 45  1  0  0  0  0
 23 24  1  0  0  0  0
 24 46  1  0  0  0  0
 24 47  1  0  0  0  0
 24 48  1  0  0  0  0
 25  7  1  0  0  0  0
 26 25  1  0  0  0  0
 27 25  1  0  0  0  0
 27 34  2  0  0  0  0
 28 27  1  0  0  0  0
 28 49  1  0  0  0  0
 29 28  2  0  0  0  0
 29 31  1  0  0  0  0
 30 29  1  0  0  0  0
 31 33  2  0  0  0  0
 32 31  1  0  0  0  0
 33 34  1  0  0  0  0
 33 50  1  0  0  0  0
 34 51  1  0  0  0  0
M  END
>  <REMARK>
 VINA RESULT:      -6.8      1.698      2.100
  7 active torsions:
  status: ('A' for Active; 'I' for Inactive)
    1  A    between atoms: O_2  and  C_3 
    2  A    between atoms: C_8  and  N_9 
       I    between atoms: N_9  and  C_11 
    3  A    between atoms: C_11  and  C_13 
    4  A    between atoms: C_14  and  C_15 
    5  A    between atoms: C_15  and  N_16 
    6  A    between atoms: C_19  and  N_20 
    7  A    between atoms: N_20  and  C_22 

>  <TORSDO>
F 7

$$$$
resistance_project/docking/8faf60323ce63d5a/P00533_T790M/docked/molecule_0006_out.pdbqt
 OpenBabel09142609533D

 51 53  0  0  0  0  0  0  0  0999 V2000
  -52.2690    0.8790  -19.9490 C   0  0  0  0  0  0  0  0  0  0  0  0
  -53.3790    1.2940  -20.6770 C   0  0  0  0  0  0  0  0  0  0  0  0
  -53.3900    1.1860  -22.0360 C   0  0  0  0  0  0  0  0  0  0  0  0
  -52.2900    0.6590  -22.6850 C   0  0  0  0  0  0  0  0  0  0  0  0
  -51.1760    0.2390  -21.9740 C   0  0  0  0  0  0  0  0  0  0  0  0
  -51.1680    0.3520  -20.5940 C   0  0  0  0  0  0  0  0  0  0  0  0
  -52.3520    0.5820  -24.0620 C   0  0  0  0  0  0  0  0  0  0  0  0
  -53.4630    1.0150  -24.7190 N   0  0  0  0  0  0  0  0  0  0  0  0
  -53.4970    0.9540  -25.7360 H   0  0  0  0  0  0  0  0  0  0  0  0
  -54.5160    1.5220  -24.0550 C   0  0  0  0  0  0  0  0  0  0  0  0
  -54.4750    1.6050  -22.7060 N   0  0  0  0  0  0  0  0  0  0  0  0
  -55.2710    1.9880  -22.1970 H   0  0  0  0  0  0  0  0  0  0  0  0
  -50.0600   -0.0550  -19.7940 N   0  0  0  0  0  0  0  0  0  0  0  0
  -49.9210   -1.4040  -19.3440 C   0  0  0  0  0  0  0  0  0  0  0  0
  -50.7310   -2.3160  -19.6420 O   0  0  0  0  0  0  0  0  0  0  0  0
  -49.3520    0.6320  -19.5360 H   0  0  0  0  0  0  0  0  0  0  0  0
  -48.7930   -1.7250  -18.5070 C   0  0  0  0  0  0  0  0  0  0  0  0
  -47.8430   -2.0130  -17.7850 C   0  0  0  0  0  0  0  0  0  0  0  0
  -46.6950   -2.3420  -16.9380 C   0  0  0  0  0  0  0  0  0  0  0  0
  -45.9020   -3.3590  -17.5980 N   0  0  0  0  0  0  0  0  0  0  0  0
  -44.5120   -2.9550  -17.4960 C   0  0  0  0  0  0  0  0  0  0  0  0
  -46.0600   -4.5910  -16.8510 C   0  0  0  0  0  0  0  0  0  0  0  0
  -52.2710    0.9960  -18.5710 O   0  0  0  0  0  0  0  0  0  0  0  0
  -52.1280    2.2600  -17.9640 C   0  0  0  0  0  0  0  0  0  0  0  0
  -51.2500    0.0360  -24.8190 N   0  0  0  0  0  0  0  0  0  0  0  0
  -50.6840    0.6440  -25.4110 H   0  0  0  0  0  0  0  0  0  0  0  0
  -50.9540   -1.3730  -24.7320 C   0  0  0  0  0  0  0  0  0  0  0  0
  -49.6800   -1.8640  -24.7700 C   0  0  0  0  0  0  0  0  0  0  0  0
  -49.5100   -3.2350  -24.6950 C   0  0  0  0  0  0  0  0  0  0  0  0
  -47.9000   -3.9210  -24.7370 Cl  0  0  0  0  0  0  0  0  0  0  0  0
  -50.5660   -4.1130  -24.5850 C   0  0  0  0  0  0  0  0  0  0  0  0
  -50.3820   -5.4710  -24.5140 F   0  0  0  0  0  0  0  0  0  0  0  0
  -51.8510   -3.6070  -24.5460 C   0  0  0  0  0  0  0  0  0  0  0  0
  -52.0110   -2.2580  -24.6210 C   0  0  0  0  0  0  0  0  0  0  0  0
  -54.1981    1.6855  -20.1862 H   0  0  0  0  0  0  0  0  0  0  0  0
  -50.3430    0.8035  -22.3378 H   0  0  0  0  0  0  0  0  0  0  0  0
  -55.3621    0.9161  -24.3040 H   0  0  0  0  0  0  0  0  0  0  0  0
  -47.0388   -2.7107  -15.9942 H   0  0  0  0  0  0  0  0  0  0  0  0
  -46.1009   -1.4669  -16.7761 H   0  0  0  0  0  0  0  0  0  0  0  0
  -44.3642   -2.0453  -18.0395 H   0  0  0  0  0  0  0  0  0  0  0  0
  -43.8870   -3.7208  -17.9057 H   0  0  0  0  0  0  0  0  0  0  0  0
  -44.2599   -2.8010  -16.4676 H   0  0  0  0  0  0  0  0  0  0  0  0
  -45.4847   -5.3652  -17.3142 H   0  0  0  0  0  0  0  0  0  0  0  0
  -47.0925   -4.8717  -16.8403 H   0  0  0  0  0  0  0  0  0  0  0  0
  -45.7195   -4.4456  -15.8471 H   0  0  0  0  0  0  0  0  0  0  0  0
  -52.1534    2.1496  -16.9000 H   0  0  0  0  0  0  0  0  0  0  0  0
  -52.9285    2.8979  -18.2756 H   0  0  0  0  0  0  0  0  0  0  0  0
  -51.1935    2.6920  -18.2556 H   0  0  0  0  0  0  0  0  0  0  0  0
  -48.8687   -1.2314  -24.8522 H   0  0  0  0  0  0  0  0  0  0  0  0
  -52.6662   -4.2343  -24.4624 H   0  0  0  0  0  0  0  0  0  0  0  0
  -52.9693   -1.8759  -24.5937 H   0  0  0  0  0  0  0  0  0  0  0  0
  1 23  1  0  0  0  0
  2  1  1  0  0  0  0
  2 35  1  0  0  0  0
  3  2  2  0  0  0  0
  4  3  1  0  0  0  0
  4  5  1  0  0  0  0
  5  6  1  0  0  0  0
  5 36  1  0  0  0  0
  6  1  2  0  0  0  0
  6 13  1  0  0  0  0
  7  4  2  0  0  0  0
  8  7  1  0  0  0  0
  8 10  1  0  0  0  0
  9  8  1  0  0  0  0
 10 11  1  0  0  0  0
 10 37  1  0  0  0  0
 11 12  1  0  0  0  0
 11  3  1  0  0  0  0
 13 16  1  0  0  0  0
 13 14  1  0  0  0  0
 14 17  1  0  0  0  0
 15 14  2  0  0  0  0
 17 18  3  0  0  0  0
 18 19  1  0  0  0  0
 19 38  1  0  0  0  0
 19 39  1  0  0  0  0
 20 21  1  0  0  0  0
 20 19  1  0  0  0  0
 20 22  1  0  0  0  0
 21 40  1  0  0  0  0
 21 41  1  0  0  0  0
 21 42  1  0  0  0  0
 22 43  1  0  0  0  0
 22 44  1  0  0  0  0
 22 45  1  0  0  0  0
 23 24  1  0  0  0  0
 24 46  1  0  0  0  0
 24 47  1  0  0  0  0
 24 48  1  0  0  0  0
 25 27  1  0  0  0  0
 25  7  1  0  0  0  0
 26 25  1  0  0  0  0
 27 34  1  0  0  0  0
 28 27  2  0  0  0  0
 28 29  1  0  0  0  0
 28 49  1  0  0  0  0
 29 31  2  0  0  0  0
 30 29  1  0  0  0  0
 31 33  1  0  0  0  0
 31 32  1  0  0  0  0
 33 50  1  0  0  0  0
 34 33  2  0  0  0  0
 34 51  1  0  0  0  0
M  END
>  <REMARK>
 VINA RESULT:      -6.8      1.664      1.947
  7 active torsions:
  status: ('A' for Active; 'I' for Inactive)
    1  A    between atoms: O_2  and  C_3 
    2  A    between atoms: C_8  and  N_9 
       I    between atoms: N_9  and  C_11 
    3  A    between atoms: C_11  and  C_13 
    4  A    between atoms: C_14  and  C_15 
    5  A    between atoms: C_15  and  N_16 
    6  A    between atoms: C_19  and  N_20 
    7  A    between atoms: N_20  and  C_22 

>  <TORSDO>
F 7

$$$$
resistance_project/docking/8faf60323ce63d5a/P00533_T790M/docked/molecule_0006_out.pdbqt
 OpenBabel09142609533D

 51 53  0  0  0  0  0  0  0  0999 V2000
  -49.3720   -3.9700  -19.3020 C   0  0  0  0  0  0  0  0  0  0  0  0
  -48.8490   -5.0630  -19.9840 C   0  0  0  0  0  0  0  0  0  0  0  0
  -49.3370   -5.4080  -21.2090 C   0  0  0  0  0  0  0  0  0  0  0  0
  -50.3550   -4.6610  -21.7690 C   0  0  0  0  0  0  0  0  0  0  0  0
  -50.8870   -3.5670  -21.1030 C   0  0  0  0  0  0  0  0  0  0  0  0
  -50.3900   -3.2210  -19.8590 C   0  0  0  0  0  0  0  0  0  0  0  0
  -50.8180   -5.0600  -23.0070 C   0  0  0  0  0  0  0  0  0  0  0  0
  -50.2720   -6.1460  -23.6190 N   0  0  0  0  0  0  0  0  0  0  0  0
  -50.6230   -6.4330  -24.5330 H   0  0  0  0  0  0  0  0  0  0  0  0
  -49.2820   -6.8500  -23.0450 C   0  0  0  0  0  0  0  0  0  0  0  0
  -48.8150   -6.4740  -21.8340 N   0  0  0  0  0  0  0  0  0  0  0  0
  -48.0630   -7.0040  -21.3930 H   0  0  0  0  0  0  0  0  0  0  0  0
  -50.8850   -2.1130  -19.1110 N   0  0  0  0  0  0  0  0  0  0  0  0
  -50.2950   -0.8160  -19.2200 C   0  0  0  0  0  0  0  0  0  0  0  0
  -49.3370   -0.5590  -19.9910 O   0  0  0  0  0  0  0  0  0  0  0  0
  -51.6780   -2.2480  -18.4840 H   0  0  0  0  0  0  0  0  0  0  0  0
  -50.8300    0.2420  -18.4020 C   0  0  0  0  0  0  0  0  0  0  0  0
  -51.2700    1.1560  -17.7100 C   0  0  0  0  0  0  0  0  0  0  0  0
  -51.8170    2.2330  -16.8820 C   0  0  0  0  0  0  0  0  0  0  0  0
  -51.1340    2.2330  -15.6040 N   0  0  0  0  0  0  0  0  0  0  0  0
  -51.6090    3.3850  -14.8620 C   0  0  0  0  0  0  0  0  0  0  0  0
  -51.5460    1.0430  -14.8870 C   0  0  0  0  0  0  0  0  0  0  0  0
  -48.8680   -3.6330  -18.0590 O   0  0  0  0  0  0  0  0  0  0  0  0
  -47.5330   -3.1970  -17.9270 C   0  0  0  0  0  0  0  0  0  0  0  0
  -51.8740   -4.3310  -23.6690 N   0  0  0  0  0  0  0  0  0  0  0  0
  -52.8120   -4.7270  -23.7270 H   0  0  0  0  0  0  0  0  0  0  0  0
  -51.5950   -3.0400  -24.2470 C   0  0  0  0  0  0  0  0  0  0  0  0
  -52.5170   -2.0330  -24.2870 C   0  0  0  0  0  0  0  0  0  0  0  0
  -52.1490   -0.8380  -24.8790 C   0  0  0  0  0  0  0  0  0  0  0  0
  -53.2890    0.4880  -24.9570 Cl  0  0  0  0  0  0  0  0  0  0  0  0
  -50.9010   -0.6280  -25.4230 C   0  0  0  0  0  0  0  0  0  0  0  0
  -50.5510    0.5620  -26.0110 F   0  0  0  0  0  0  0  0  0  0  0  0
  -49.9740   -1.6520  -25.3770 C   0  0  0  0  0  0  0  0  0  0  0  0
  -50.3430   -2.8240  -24.7930 C   0  0  0  0  0  0  0  0  0  0  0  0
  -48.0874   -5.6159  -19.5605 H   0  0  0  0  0  0  0  0  0  0  0  0
  -51.9329   -3.7560  -20.9791 H   0  0  0  0  0  0  0  0  0  0  0  0
  -48.4519   -6.8271  -23.7197 H   0  0  0  0  0  0  0  0  0  0  0  0
  -52.8640    2.0733  -16.7301 H   0  0  0  0  0  0  0  0  0  0  0  0
  -51.6747    3.1745  -17.3700 H   0  0  0  0  0  0  0  0  0  0  0  0
  -51.3183    4.2809  -15.3697 H   0  0  0  0  0  0  0  0  0  0  0  0
  -51.1833    3.3773  -13.8803 H   0  0  0  0  0  0  0  0  0  0  0  0
  -52.6758    3.3468  -14.7885 H   0  0  0  0  0  0  0  0  0  0  0  0
  -51.2081    0.1747  -15.4131 H   0  0  0  0  0  0  0  0  0  0  0  0
  -52.6133    1.0226  -14.8133 H   0  0  0  0  0  0  0  0  0  0  0  0
  -51.1208    1.0530  -13.9052 H   0  0  0  0  0  0  0  0  0  0  0  0
  -47.3273   -2.9842  -16.8987 H   0  0  0  0  0  0  0  0  0  0  0  0
  -47.3875   -2.3119  -18.5104 H   0  0  0  0  0  0  0  0  0  0  0  0
  -46.8715   -3.9641  -18.2717 H   0  0  0  0  0  0  0  0  0  0  0  0
  -53.4600   -2.1598  -23.8875 H   0  0  0  0  0  0  0  0  0  0  0  0
  -49.0292   -1.5311  -25.7742 H   0  0  0  0  0  0  0  0  0  0  0  0
  -49.6535   -3.5909  -24.7556 H   0  0  0  0  0  0  0  0  0  0  0  0
  1 23  1  0  0  0  0
  2  1  1  0  0  0  0
  2 35  1  0  0  0  0
  3  2  2  0  0  0  0
  4  3  1  0  0  0  0
  4  5  1  0  0  0  0
  5  6  1  0  0  0  0
  5 36  1  0  0  0  0
  6  1  2  0  0  0  0
  6 13  1  0  0  0  0
  7  4  2  0  0  0  0
  8 10  1  0  0  0  0
  8  7  1  0  0  0  0
  9  8  1  0  0  0  0
 10 11  1  0  0  0  0
 10 37  1  0  0  0  0
 11 12  1  0  0  0  0
 11  3  1  0  0  0  0
 13 16  1  0  0  0  0
 14 13  1  0  0  0  0
 14 17  1  0  0  0  0
 15 14  2  0  0  0  0
 17 18  3  0  0  0  0
 18 19  1  0  0  0  0
 19 20  1  0  0  0  0
 19 38  1  0  0  0  0
 19 39  1  0  0  0  0
 20 22  1  0  0  0  0
 20 21  1  0  0  0  0
 21 40  1  0  0  0  0
 21 41  1  0  0  0  0
 21 42  1  0  0  0  0
 22 43  1  0  0  0  0
 22 44  1  0  0  0  0
 22 45  1  0  0  0  0
 23 24  1  0  0  0  0
 24 46  1  0  0  0  0
 24 47  1  0  0  0  0
 24 48  1  0  0  0  0
 25  7  1  0  0  0  0
 26 25  1  0  0  0  0
 27 25  1  0  0  0  0
 28 27  1  0  0  0  0
 28 49  1  0  0  0  0
 29 28  2  0  0  0  0
 30 29  1  0  0  0  0
 31 33  2  0  0  0  0
 31 29  1  0  0  0  0
 32 31  1  0  0  0  0
 33 34  1  0  0  0  0
 33 50  1  0  0  0  0
 34 27  2  0  0  0  0
 34 51  1  0  0  0  0
M  END
>  <REMARK>
 VINA RESULT:      -6.8      3.467      6.034
  7 active torsions:
  status: ('A' for Active; 'I' for Inactive)
    1  A    between atoms: O_2  and  C_3 
    2  A    between atoms: C_8  and  N_9 
       I    between atoms: N_9  and  C_11 
    3  A    between atoms: C_11  and  C_13 
    4  A    between atoms: C_14  and  C_15 
    5  A    between atoms: C_15  and  N_16 
    6  A    between atoms: C_19  and  N_20 
    7  A    between atoms: N_20  and  C_22 

>  <TORSDO>
F 7

$$$$
resistance_project/docking/8faf60323ce63d5a/P00533_T790M/docked/molecule_0006_out.pdbqt
 OpenBabel09142609533D

 51 53  0  0  0  0  0  0  0  0999 V2000
  -50.6930    2.8840  -14.2430 C   0  0  0  0  0  0  0  0  0  0  0  0
  -49.7040    1.9930  -14.6440 C   0  0  0  0  0  0  0  0  0  0  0  0
  -49.8040    1.3490  -15.8410 C   0  0  0  0  0  0  0  0  0  0  0  0
  -50.8950    1.5900  -16.6550 C   0  0  0  0  0  0  0  0  0  0  0  0
  -51.8880    2.4770  -16.2700 C   0  0  0  0  0  0  0  0  0  0  0  0
  -51.7850    3.1290  -15.0530 C   0  0  0  0  0  0  0  0  0  0  0  0
  -50.9490    0.9030  -17.8510 C   0  0  0  0  0  0  0  0  0  0  0  0
  -49.9550    0.0340  -18.1830 N   0  0  0  0  0  0  0  0  0  0  0  0
  -50.0070   -0.4680  -19.0690 H   0  0  0  0  0  0  0  0  0  0  0  0
  -48.9070   -0.1760  -17.3670 C   0  0  0  0  0  0  0  0  0  0  0  0
  -48.8360    0.4880  -16.1920 N   0  0  0  0  0  0  0  0  0  0  0  0
  -48.0430    0.3330  -15.5690 H   0  0  0  0  0  0  0  0  0  0  0  0
  -52.7650    4.0520  -14.5860 N   0  0  0  0  0  0  0  0  0  0  0  0
  -52.7990    5.4020  -15.0530 C   0  0  0  0  0  0  0  0  0  0  0  0
  -52.0040    5.8530  -15.9150 O   0  0  0  0  0  0  0  0  0  0  0  0
  -53.4570    3.7430  -13.9040 H   0  0  0  0  0  0  0  0  0  0  0  0
  -53.7990    6.2830  -14.5040 C   0  0  0  0  0  0  0  0  0  0  0  0
  -54.6430    7.0280  -14.0170 C   0  0  0  0  0  0  0  0  0  0  0  0
  -55.6570    7.9260  -13.4580 C   0  0  0  0  0  0  0  0  0  0  0  0
  -56.8010    7.9500  -14.3460 N   0  0  0  0  0  0  0  0  0  0  0  0
  -57.9870    7.8030  -13.5230 C   0  0  0  0  0  0  0  0  0  0  0  0
  -56.8500    9.2600  -14.9620 C   0  0  0  0  0  0  0  0  0  0  0  0
  -50.5790    3.5300  -13.0250 O   0  0  0  0  0  0  0  0  0  0  0  0
  -49.6590    4.5870  -12.8630 C   0  0  0  0  0  0  0  0  0  0  0  0
  -52.0500    1.1020  -18.7640 N   0  0  0  0  0  0  0  0  0  0  0  0
  -52.8440    1.6810  -18.4920 H   0  0  0  0  0  0  0  0  0  0  0  0
  -52.0190    0.4770  -20.0640 C   0  0  0  0  0  0  0  0  0  0  0  0
  -52.0150    1.1920  -21.2280 C   0  0  0  0  0  0  0  0  0  0  0  0
  -52.0000    0.4920  -22.4210 C   0  0  0  0  0  0  0  0  0  0  0  0
  -51.9930    1.3550  -23.9430 Cl  0  0  0  0  0  0  0  0  0  0  0  0
  -51.9900   -0.8850  -22.4770 C   0  0  0  0  0  0  0  0  0  0  0  0
  -51.9790   -1.5670  -23.6690 F   0  0  0  0  0  0  0  0  0  0  0  0
  -51.9940   -1.6000  -21.2950 C   0  0  0  0  0  0  0  0  0  0  0  0
  -52.0080   -0.9050  -20.1260 C   0  0  0  0  0  0  0  0  0  0  0  0
  -48.8909    1.8185  -14.0329 H   0  0  0  0  0  0  0  0  0  0  0  0
  -52.8061    1.9278  -16.2522 H   0  0  0  0  0  0  0  0  0  0  0  0
  -48.0263    0.0751  -17.9203 H   0  0  0  0  0  0  0  0  0  0  0  0
  -55.9577    7.5728  -12.4938 H   0  0  0  0  0  0  0  0  0  0  0  0
  -55.2537    8.9121  -13.3585 H   0  0  0  0  0  0  0  0  0  0  0  0
  -58.8571    7.8161  -14.1457 H   0  0  0  0  0  0  0  0  0  0  0  0
  -58.0375    8.6104  -12.8227 H   0  0  0  0  0  0  0  0  0  0  0  0
  -57.9410    6.8742  -12.9938 H   0  0  0  0  0  0  0  0  0  0  0  0
  -57.6872    9.3106  -15.6264 H   0  0  0  0  0  0  0  0  0  0  0  0
  -55.9477    9.4297  -15.5116 H   0  0  0  0  0  0  0  0  0  0  0  0
  -56.9513   10.0074  -14.2031 H   0  0  0  0  0  0  0  0  0  0  0  0
  -49.7148    4.9580  -11.8609 H   0  0  0  0  0  0  0  0  0  0  0  0
  -49.8956    5.3739  -13.5483 H   0  0  0  0  0  0  0  0  0  0  0  0
  -48.6688    4.2309  -13.0569 H   0  0  0  0  0  0  0  0  0  0  0  0
  -52.0229    2.2239  -21.2176 H   0  0  0  0  0  0  0  0  0  0  0  0
  -51.9866   -2.6320  -21.2989 H   0  0  0  0  0  0  0  0  0  0  0  0
  -52.0105   -1.4353  -19.2407 H   0  0  0  0  0  0  0  0  0  0  0  0
  1 23  1  0  0  0  0
  2  1  1  0  0  0  0
  2 35  1  0  0  0  0
  3  2  2  0  0  0  0
  4  5  1  0  0  0  0
  4  3  1  0  0  0  0
  5  6  1  0  0  0  0
  5 36  1  0  0  0  0
  6 13  1  0  0  0  0
  6  1  2  0  0  0  0
  7  4  2  0  0  0  0
  8  7  1  0  0  0  0
  8 10  1  0  0  0  0
  9  8  1  0  0  0  0
 10 11  1  0  0  0  0
 10 37  1  0  0  0  0
 11  3  1  0  0  0  0
 11 12  1  0  0  0  0
 13 16  1  0  0  0  0
 14 13  1  0  0  0  0
 14 17  1  0  0  0  0
 15 14  2  0  0  0  0
 17 18  3  0  0  0  0
 18 19  1  0  0  0  0
 19 38  1  0  0  0  0
 19 39  1  0  0  0  0
 20 21  1  0  0  0  0
 20 19  1  0  0  0  0
 21 40  1  0  0  0  0
 21 41  1  0  0  0  0
 21 42  1  0  0  0  0
 22 20  1  0  0  0  0
 22 43  1  0  0  0  0
 22 44  1  0  0  0  0
 22 45  1  0  0  0  0
 23 24  1  0  0  0  0
 24 46  1  0  0  0  0
 24 47  1  0  0  0  0
 24 48  1  0  0  0  0
 25 26  1  0  0  0  0
 25  7  1  0  0  0  0
 27 25  1  0  0  0  0
 28 27  2  0  0  0  0
 28 49  1  0  0  0  0
 29 28  1  0  0  0  0
 30 29  1  0  0  0  0
 31 29  2  0  0  0  0
 31 33  1  0  0  0  0
 32 31  1  0  0  0  0
 33 34  2  0  0  0  0
 33 50  1  0  0  0  0
 34 27  1  0  0  0  0
 34 51  1  0  0  0  0
M  END
>  <REMARK>
 VINA RESULT:      -6.8      4.306      8.134
  7 active torsions:
  status: ('A' for Active; 'I' for Inactive)
    1  A    between atoms: O_2  and  C_3 
    2  A    between atoms: C_8  and  N_9 
       I    between atoms: N_9  and  C_11 
    3  A    between atoms: C_11  and  C_13 
    4  A    between atoms: C_14  and  C_15 
    5  A    between atoms: C_15  and  N_16 
    6  A    between atoms: C_19  and  N_20 
    7  A    between atoms: N_20  and  C_22 

>  <TORSDO>
F 7

$$$$
resistance_project/docking/8faf60323ce63d5a/P00533_T790M/docked/molecule_0006_out.pdbqt
 OpenBabel09142609533D

 51 53  0  0  0  0  0  0  0  0999 V2000
  -51.4120    0.7190  -20.0180 C   0  0  0  0  0  0  0  0  0  0  0  0
  -52.0660    1.7310  -19.3220 C   0  0  0  0  0  0  0  0  0  0  0  0
  -51.8900    1.8650  -17.9780 C   0  0  0  0  0  0  0  0  0  0  0  0
  -51.0550    0.9890  -17.3100 C   0  0  0  0  0  0  0  0  0  0  0  0
  -50.3950   -0.0240  -17.9890 C   0  0  0  0  0  0  0  0  0  0  0  0
  -50.5770   -0.1580  -19.3550 C   0  0  0  0  0  0  0  0  0  0  0  0
  -50.9220    1.1650  -15.9470 C   0  0  0  0  0  0  0  0  0  0  0  0
  -51.5970    2.1670  -15.3210 N   0  0  0  0  0  0  0  0  0  0  0  0
  -51.4910    2.2870  -14.3140 H   0  0  0  0  0  0  0  0  0  0  0  0
  -52.4010    3.0020  -16.0020 C   0  0  0  0  0  0  0  0  0  0  0  0
  -52.5440    2.8460  -17.3370 N   0  0  0  0  0  0  0  0  0  0  0  0
  -53.1520    3.4770  -17.8590 H   0  0  0  0  0  0  0  0  0  0  0  0
  -49.9360   -1.1740  -20.1230 N   0  0  0  0  0  0  0  0  0  0  0  0
  -50.5230   -2.4670  -20.2850 C   0  0  0  0  0  0  0  0  0  0  0  0
  -51.6380   -2.7820  -19.8000 O   0  0  0  0  0  0  0  0  0  0  0  0
  -49.0390   -0.9750  -20.5650 H   0  0  0  0  0  0  0  0  0  0  0  0
  -49.7940   -3.4500  -21.0450 C   0  0  0  0  0  0  0  0  0  0  0  0
  -49.1900   -4.2950  -21.7000 C   0  0  0  0  0  0  0  0  0  0  0  0
  -48.4490   -5.2910  -22.4760 C   0  0  0  0  0  0  0  0  0  0  0  0
  -49.1810   -6.5410  -22.4530 N   0  0  0  0  0  0  0  0  0  0  0  0
  -48.7460   -7.3160  -23.6000 C   0  0  0  0  0  0  0  0  0  0  0  0
  -48.7860   -7.2590  -21.2580 C   0  0  0  0  0  0  0  0  0  0  0  0
  -51.6010    0.5950  -21.3820 O   0  0  0  0  0  0  0  0  0  0  0  0
  -52.8440    0.9220  -21.9620 C   0  0  0  0  0  0  0  0  0  0  0  0
  -50.0630    0.3000  -15.1740 N   0  0  0  0  0  0  0  0  0  0  0  0
  -49.0590    0.4760  -15.1360 H   0  0  0  0  0  0  0  0  0  0  0  0
  -50.6320   -0.8140  -14.4570 C   0  0  0  0  0  0  0  0  0  0  0  0
  -51.4090   -0.6570  -13.3440 C   0  0  0  0  0  0  0  0  0  0  0  0
  -51.8920   -1.7950  -12.7230 C   0  0  0  0  0  0  0  0  0  0  0  0
  -52.8930   -1.6550  -11.2940 Cl  0  0  0  0  0  0  0  0  0  0  0  0
  -51.6230   -3.0670  -13.1820 C   0  0  0  0  0  0  0  0  0  0  0  0
  -52.1070   -4.1870  -12.5530 F   0  0  0  0  0  0  0  0  0  0  0  0
  -50.8380   -3.2160  -14.3090 C   0  0  0  0  0  0  0  0  0  0  0  0
  -50.3660   -2.0920  -14.9140 C   0  0  0  0  0  0  0  0  0  0  0  0
  -52.6871    2.3829  -19.8263 H   0  0  0  0  0  0  0  0  0  0  0  0
  -49.3476    0.1234  -17.8272 H   0  0  0  0  0  0  0  0  0  0  0  0
  -53.3769    2.9144  -15.5720 H   0  0  0  0  0  0  0  0  0  0  0  0
  -48.3442   -4.9543  -23.4862 H   0  0  0  0  0  0  0  0  0  0  0  0
  -47.4767   -5.4317  -22.0521 H   0  0  0  0  0  0  0  0  0  0  0  0
  -49.0249   -6.8086  -24.4998 H   0  0  0  0  0  0  0  0  0  0  0  0
  -49.2097   -8.2800  -23.5757 H   0  0  0  0  0  0  0  0  0  0  0  0
  -47.6826   -7.4309  -23.5703 H   0  0  0  0  0  0  0  0  0  0  0  0
  -49.3110   -8.1902  -21.2115 H   0  0  0  0  0  0  0  0  0  0  0  0
  -49.0228   -6.6726  -20.3949 H   0  0  0  0  0  0  0  0  0  0  0  0
  -47.7325   -7.4445  -21.2852 H   0  0  0  0  0  0  0  0  0  0  0  0
  -52.7973    0.7628  -23.0191 H   0  0  0  0  0  0  0  0  0  0  0  0
  -53.0700    1.9493  -21.7657 H   0  0  0  0  0  0  0  0  0  0  0  0
  -53.6080    0.3021  -21.5414 H   0  0  0  0  0  0  0  0  0  0  0  0
  -51.6290    0.2824  -12.9776 H   0  0  0  0  0  0  0  0  0  0  0  0
  -50.6159   -4.1525  -14.6813 H   0  0  0  0  0  0  0  0  0  0  0  0
  -49.7798   -2.1987  -15.7566 H   0  0  0  0  0  0  0  0  0  0  0  0
  1  6  2  0  0  0  0
  1  2  1  0  0  0  0
  2  3  2  0  0  0  0
  2 35  1  0  0  0  0
  3 11  1  0  0  0  0
  3  4  1  0  0  0  0
  4  7  2  0  0  0  0
  5  4  1  0  0  0  0
  5 36  1  0  0  0  0
  6  5  1  0  0  0  0
  7  8  1  0  0  0  0
  7 25  1  0  0  0  0
  8  9  1  0  0  0  0
 10  8  1  0  0  0  0
 10 37  1  0  0  0  0
 11 10  1  0  0  0  0
 12 11  1  0  0  0  0
 13  6  1  0  0  0  0
 14 13  1  0  0  0  0
 14 15  2  0  0  0  0
 16 13  1  0  0  0  0
 17 14  1  0  0  0  0
 18 17  3  0  0  0  0
 19 20  1  0  0  0  0
 19 18  1  0  0  0  0
 19 38  1  0  0  0  0
 19 39  1  0  0  0  0
 20 22  1  0  0  0  0
 21 20  1  0  0  0  0
 21 40  1  0  0  0  0
 21 41  1  0  0  0  0
 21 42  1  0  0  0  0
 22 43  1  0  0  0  0
 22 44  1  0  0  0  0
 22 45  1  0  0  0  0
 23  1  1  0  0  0  0
 24 23  1  0  0  0  0
 24 46  1  0  0  0  0
 24 47  1  0  0  0  0
 24 48  1  0  0  0  0
 25 26  1  0  0  0  0
 25 27  1  0  0  0  0
 27 28  1  0  0  0  0
 28 29  2  0  0  0  0
 28 49  1  0  0  0  0
 29 30  1  0  0  0  0
 31 29  1  0  0  0  0
 31 32  1  0  0  0  0
 33 31  2  0  0  0  0
 33 50  1  0  0  0  0
 34 27  2  0  0  0  0
 34 33  1  0  0  0  0
 34 51  1  0  0  0  0
M  END
>  <REMARK>
 VINA RESULT:      -6.7      4.344      7.225
  7 active torsions:
  status: ('A' for Active; 'I' for Inactive)
    1  A    between atoms: O_2  and  C_3 
    2  A    between atoms: C_8  and  N_9 
       I    between atoms: N_9  and  C_11 
    3  A    between atoms: C_11  and  C_13 
    4  A    between atoms: C_14  and  C_15 
    5  A    between atoms: C_15  and  N_16 
    6  A    between atoms: C_19  and  N_20 
    7  A    between atoms: N_20  and  C_22 

>  <TORSDO>
F 7

$$$$
resistance_project/docking/8faf60323ce63d5a/P00533_T790M/docked/molecule_0006_out.pdbqt
 OpenBabel09142609533D

 51 53  0  0  0  0  0  0  0  0999 V2000
  -50.2150   -0.6750  -15.0110 C   0  0  0  0  0  0  0  0  0  0  0  0
  -49.7530   -1.9370  -15.3690 C   0  0  0  0  0  0  0  0  0  0  0  0
  -49.2710   -2.1620  -16.6240 C   0  0  0  0  0  0  0  0  0  0  0  0
  -49.2430   -1.1260  -17.5380 C   0  0  0  0  0  0  0  0  0  0  0  0
  -49.6980    0.1380  -17.1960 C   0  0  0  0  0  0  0  0  0  0  0  0
  -50.1880    0.3630  -15.9210 C   0  0  0  0  0  0  0  0  0  0  0  0
  -48.7550   -1.4130  -18.7970 C   0  0  0  0  0  0  0  0  0  0  0  0
  -48.3270   -2.6720  -19.0900 N   0  0  0  0  0  0  0  0  0  0  0  0
  -47.9690   -2.8720  -20.0240 H   0  0  0  0  0  0  0  0  0  0  0  0
  -48.3680   -3.6560  -18.1760 C   0  0  0  0  0  0  0  0  0  0  0  0
  -48.8430   -3.3950  -16.9380 N   0  0  0  0  0  0  0  0  0  0  0  0
  -48.8760   -4.1380  -16.2400 H   0  0  0  0  0  0  0  0  0  0  0  0
  -50.6760    1.6330  -15.4950 N   0  0  0  0  0  0  0  0  0  0  0  0
  -51.6790    2.3330  -16.2350 C   0  0  0  0  0  0  0  0  0  0  0  0
  -52.2140    1.8730  -17.2740 O   0  0  0  0  0  0  0  0  0  0  0  0
  -50.3010    2.0520  -14.6440 H   0  0  0  0  0  0  0  0  0  0  0  0
  -52.0910    3.6280  -15.7580 C   0  0  0  0  0  0  0  0  0  0  0  0
  -52.4250    4.7330  -15.3390 C   0  0  0  0  0  0  0  0  0  0  0  0
  -52.8420    6.0510  -14.8570 C   0  0  0  0  0  0  0  0  0  0  0  0
  -53.8010    5.8760  -13.7850 N   0  0  0  0  0  0  0  0  0  0  0  0
  -53.0750    5.9880  -12.5340 C   0  0  0  0  0  0  0  0  0  0  0  0
  -54.7380    6.9790  -13.8520 C   0  0  0  0  0  0  0  0  0  0  0  0
  -50.7020   -0.4610  -13.7350 O   0  0  0  0  0  0  0  0  0  0  0  0
  -51.6160   -1.3680  -13.1610 C   0  0  0  0  0  0  0  0  0  0  0  0
  -48.6820   -0.3870  -19.8100 N   0  0  0  0  0  0  0  0  0  0  0  0
  -47.8290    0.1620  -19.9230 H   0  0  0  0  0  0  0  0  0  0  0  0
  -49.8210   -0.1410  -20.6590 C   0  0  0  0  0  0  0  0  0  0  0  0
  -50.1150   -0.9180  -21.7440 C   0  0  0  0  0  0  0  0  0  0  0  0
  -51.2240   -0.5850  -22.5010 C   0  0  0  0  0  0  0  0  0  0  0  0
  -51.6500   -1.5450  -23.9010 Cl  0  0  0  0  0  0  0  0  0  0  0  0
  -52.0340    0.4900  -22.2030 C   0  0  0  0  0  0  0  0  0  0  0  0
  -53.1300    0.8100  -22.9660 F   0  0  0  0  0  0  0  0  0  0  0  0
  -51.7300    1.2690  -21.1040 C   0  0  0  0  0  0  0  0  0  0  0  0
  -50.6380    0.9350  -20.3640 C   0  0  0  0  0  0  0  0  0  0  0  0
  -49.7752   -2.7064  -14.6815 H   0  0  0  0  0  0  0  0  0  0  0  0
  -50.4845    0.3814  -17.8794 H   0  0  0  0  0  0  0  0  0  0  0  0
  -47.3659   -4.0115  -18.0563 H   0  0  0  0  0  0  0  0  0  0  0  0
  -53.2934    6.5998  -15.6569 H   0  0  0  0  0  0  0  0  0  0  0  0
  -51.9914    6.5920  -14.4982 H   0  0  0  0  0  0  0  0  0  0  0  0
  -52.3730    5.1842  -12.4558 H   0  0  0  0  0  0  0  0  0  0  0  0
  -53.7637    5.9408  -11.7165 H   0  0  0  0  0  0  0  0  0  0  0  0
  -52.5528    6.9215  -12.5070 H   0  0  0  0  0  0  0  0  0  0  0  0
  -55.2900    6.9230  -14.7669 H   0  0  0  0  0  0  0  0  0  0  0  0
  -54.2026    7.9046  -13.8146 H   0  0  0  0  0  0  0  0  0  0  0  0
  -55.4135    6.9240  -13.0240 H   0  0  0  0  0  0  0  0  0  0  0  0
  -51.8766   -1.0373  -12.1773 H   0  0  0  0  0  0  0  0  0  0  0  0
  -51.1679   -2.3380  -13.1041 H   0  0  0  0  0  0  0  0  0  0  0  0
  -52.4972   -1.4172  -13.7659 H   0  0  0  0  0  0  0  0  0  0  0  0
  -49.5271   -1.7293  -21.9914 H   0  0  0  0  0  0  0  0  0  0  0  0
  -52.3143    2.0812  -20.8512 H   0  0  0  0  0  0  0  0  0  0  0  0
  -50.4079    1.5138  -19.5412 H   0  0  0  0  0  0  0  0  0  0  0  0
  1 23  1  0  0  0  0
  2  1  1  0  0  0  0
  2 35  1  0  0  0  0
  3  2  2  0  0  0  0
  4  5  1  0  0  0  0
  4  3  1  0  0  0  0
  5  6  1  0  0  0  0
  5 36  1  0  0  0  0
  6 13  1  0  0  0  0
  6  1  2  0  0  0  0
  7  4  2  0  0  0  0
  8  7  1  0  0  0  0
  8 10  1  0  0  0  0
  9  8  1  0  0  0  0
 10 11  1  0  0  0  0
 10 37  1  0  0  0  0
 11  3  1  0  0  0  0
 11 12  1  0  0  0  0
 13 16  1  0  0  0  0
 14 17  1  0  0  0  0
 14 13  1  0  0  0  0
 15 14  2  0  0  0  0
 17 18  3  0  0  0  0
 18 19  1  0  0  0  0
 19 20  1  0  0  0  0
 19 38  1  0  0  0  0
 19 39  1  0  0  0  0
 20 21  1  0  0  0  0
 21 40  1  0  0  0  0
 21 41  1  0  0  0  0
 21 42  1  0  0  0  0
 22 20  1  0  0  0  0
 22 43  1  0  0  0  0
 22 44  1  0  0  0  0
 22 45  1  0  0  0  0
 23 24  1  0  0  0  0
 24 46  1  0  0  0  0
 24 47  1  0  0  0  0
 24 48  1  0  0  0  0
 25  7  1  0  0  0  0
 26 25  1  0  0  0  0
 27 34  1  0  0  0  0
 27 25  1  0  0  0  0
 28 27  2  0  0  0  0
 28 49  1  0  0  0  0
 29 31  2  0  0  0  0
 29 28  1  0  0  0  0
 30 29  1  0  0  0  0
 31 33  1  0  0  0  0
 32 31  1  0  0  0  0
 33 34  2  0  0  0  0
 33 50  1  0  0  0  0
 34 51  1  0  0  0  0
M  END
>  <REMARK>
 VINA RESULT:      -6.6      3.302      6.805
  7 active torsions:
  status: ('A' for Active; 'I' for Inactive)
    1  A    between atoms: O_2  and  C_3 
    2  A    between atoms: C_8  and  N_9 
       I    between atoms: N_9  and  C_11 
    3  A    between atoms: C_11  and  C_13 
    4  A    between atoms: C_14  and  C_15 
    5  A    between atoms: C_15  and  N_16 
    6  A    between atoms: C_19  and  N_20 
    7  A    between atoms: N_20  and  C_22 

>  <TORSDO>
F 7

$$$$
resistance_project/docking/8faf60323ce63d5a/P00533_T790M/docked/molecule_0006_out.pdbqt
 OpenBabel09142609533D

 51 53  0  0  0  0  0  0  0  0999 V2000
  -52.1600    0.5690  -22.8000 C   0  0  0  0  0  0  0  0  0  0  0  0
  -52.7710    0.4220  -24.0410 C   0  0  0  0  0  0  0  0  0  0  0  0
  -52.3670   -0.5610  -24.8940 C   0  0  0  0  0  0  0  0  0  0  0  0
  -51.3470   -1.4130  -24.5160 C   0  0  0  0  0  0  0  0  0  0  0  0
  -50.7280   -1.2810  -23.2820 C   0  0  0  0  0  0  0  0  0  0  0  0
  -51.1400   -0.2800  -22.4180 C   0  0  0  0  0  0  0  0  0  0  0  0
  -50.9710   -2.3830  -25.4230 C   0  0  0  0  0  0  0  0  0  0  0  0
  -51.6000   -2.4700  -26.6270 N   0  0  0  0  0  0  0  0  0  0  0  0
  -51.3140   -3.1900  -27.2890 H   0  0  0  0  0  0  0  0  0  0  0  0
  -52.5900   -1.6240  -26.9620 C   0  0  0  0  0  0  0  0  0  0  0  0
  -52.9720   -0.6670  -26.0870 N   0  0  0  0  0  0  0  0  0  0  0  0
  -53.7230   -0.0230  -26.3350 H   0  0  0  0  0  0  0  0  0  0  0  0
  -50.5530   -0.0790  -21.1350 N   0  0  0  0  0  0  0  0  0  0  0  0
  -51.1050   -0.6790  -19.9610 C   0  0  0  0  0  0  0  0  0  0  0  0
  -52.1060   -1.4370  -19.9800 O   0  0  0  0  0  0  0  0  0  0  0  0
  -49.7220    0.5070  -21.0520 H   0  0  0  0  0  0  0  0  0  0  0  0
  -50.4740   -0.3950  -18.6970 C   0  0  0  0  0  0  0  0  0  0  0  0
  -49.9540   -0.1420  -17.6140 C   0  0  0  0  0  0  0  0  0  0  0  0
  -49.3150    0.1430  -16.3280 C   0  0  0  0  0  0  0  0  0  0  0  0
  -49.8900    1.3530  -15.7770 N   0  0  0  0  0  0  0  0  0  0  0  0
  -51.2050    1.0120  -15.2670 C   0  0  0  0  0  0  0  0  0  0  0  0
  -49.0700    1.7550  -14.6520 C   0  0  0  0  0  0  0  0  0  0  0  0
  -52.5800    1.5720  -21.9450 O   0  0  0  0  0  0  0  0  0  0  0  0
  -53.8690    1.5270  -21.3750 C   0  0  0  0  0  0  0  0  0  0  0  0
  -49.9200   -3.3200  -25.1050 N   0  0  0  0  0  0  0  0  0  0  0  0
  -50.0880   -4.0730  -24.4380 H   0  0  0  0  0  0  0  0  0  0  0  0
  -48.6290   -3.1850  -25.7360 C   0  0  0  0  0  0  0  0  0  0  0  0
  -48.3090   -3.8150  -26.9050 C   0  0  0  0  0  0  0  0  0  0  0  0
  -47.0370   -3.6290  -27.4160 C   0  0  0  0  0  0  0  0  0  0  0  0
  -46.5700   -4.4100  -28.9100 Cl  0  0  0  0  0  0  0  0  0  0  0  0
  -46.0920   -2.8390  -26.7960 C   0  0  0  0  0  0  0  0  0  0  0  0
  -44.8320   -2.6660  -27.3130 F   0  0  0  0  0  0  0  0  0  0  0  0
  -46.4260   -2.2050  -25.6150 C   0  0  0  0  0  0  0  0  0  0  0  0
  -47.6790   -2.3930  -25.1180 C   0  0  0  0  0  0  0  0  0  0  0  0
  -53.5336    1.0602  -24.3169 H   0  0  0  0  0  0  0  0  0  0  0  0
  -49.6871   -1.1206  -23.4711 H   0  0  0  0  0  0  0  0  0  0  0  0
  -53.4539   -2.2212  -27.1668 H   0  0  0  0  0  0  0  0  0  0  0  0
  -48.2633    0.2780  -16.4715 H   0  0  0  0  0  0  0  0  0  0  0  0
  -49.4742   -0.6734  -15.6550 H   0  0  0  0  0  0  0  0  0  0  0  0
  -51.8347    0.7103  -16.0777 H   0  0  0  0  0  0  0  0  0  0  0  0
  -51.6318    1.8651  -14.7823 H   0  0  0  0  0  0  0  0  0  0  0  0
  -51.1181    0.2092  -14.5650 H   0  0  0  0  0  0  0  0  0  0  0  0
  -48.0911    2.0132  -14.9984 H   0  0  0  0  0  0  0  0  0  0  0  0
  -48.9999    0.9464  -13.9548 H   0  0  0  0  0  0  0  0  0  0  0  0
  -49.5135    2.6023  -14.1721 H   0  0  0  0  0  0  0  0  0  0  0  0
  -54.0112    2.3815  -20.7469 H   0  0  0  0  0  0  0  0  0  0  0  0
  -53.9704    0.6352  -20.7924 H   0  0  0  0  0  0  0  0  0  0  0  0
  -54.6034    1.5301  -22.1532 H   0  0  0  0  0  0  0  0  0  0  0  0
  -48.9955   -4.4118  -27.3923 H   0  0  0  0  0  0  0  0  0  0  0  0
  -45.7446   -1.6057  -25.1234 H   0  0  0  0  0  0  0  0  0  0  0  0
  -47.9326   -1.9209  -24.2360 H   0  0  0  0  0  0  0  0  0  0  0  0
  1  6  2  0  0  0  0
  1 23  1  0  0  0  0
  2  1  1  0  0  0  0
  2 35  1  0  0  0  0
  3  4  1  0  0  0  0
  3  2  2  0  0  0  0
  4  5  1  0  0  0  0
  5  6  1  0  0  0  0
  5 36  1  0  0  0  0
  6 13  1  0  0  0  0
  7 25  1  0  0  0  0
  7  4  2  0  0  0  0
  8  7  1  0  0  0  0
  9  8  1  0  0  0  0
 10  8  1  0  0  0  0
 10 11  1  0  0  0  0
 10 37  1  0  0  0  0
 11  3  1  0  0  0  0
 12 11  1  0  0  0  0
 13 16  1  0  0  0  0
 13 14  1  0  0  0  0
 14 17  1  0  0  0  0
 15 14  2  0  0  0  0
 17 18  3  0  0  0  0
 18 19  1  0  0  0  0
 19 20  1  0  0  0  0
 19 38  1  0  0  0  0
 19 39  1  0  0  0  0
 20 21  1  0  0  0  0
 20 22  1  0  0  0  0
 21 40  1  0  0  0  0
 21 41  1  0  0  0  0
 21 42  1  0  0  0  0
 22 43  1  0  0  0  0
 22 44  1  0  0  0  0
 22 45  1  0  0  0  0
 23 24  1  0  0  0  0
 24 46  1  0  0  0  0
 24 47  1  0  0  0  0
 24 48  1  0  0  0  0
 25 26  1  0  0  0  0
 27 34  2  0  0  0  0
 27 25  1  0  0  0  0
 28 27  1  0  0  0  0
 28 49  1  0  0  0  0
 29 28  2  0  0  0  0
 29 31  1  0  0  0  0
 30 29  1  0  0  0  0
 31 33  2  0  0  0  0
 32 31  1  0  0  0  0
 33 34  1  0  0  0  0
 33 50  1  0  0  0  0
 34 51  1  0  0  0  0
M  END
>  <REMARK>
 VINA RESULT:      -6.6      3.727      5.244
  7 active torsions:
  status: ('A' for Active; 'I' for Inactive)
    1  A    between atoms: O_2  and  C_3 
    2  A    between atoms: C_8  and  N_9 
       I    between atoms: N_9  and  C_11 
    3  A    between atoms: C_11  and  C_13 
    4  A    between atoms: C_14  and  C_15 
    5  A    between atoms: C_15  and  N_16 
    6  A    between atoms: C_19  and  N_20 
    7  A    between atoms: N_20  and  C_22 

>  <TORSDO>
F 7

$$$$
resistance_project/docking/8faf60323ce63d5a/P00533_T790M/docked/molecule_0006_out.pdbqt
 OpenBabel09142609533D

 51 53  0  0  0  0  0  0  0  0999 V2000
  -51.7230    0.4600  -21.3560 C   0  0  0  0  0  0  0  0  0  0  0  0
  -51.8680    0.9560  -22.6480 C   0  0  0  0  0  0  0  0  0  0  0  0
  -51.9670    0.1010  -23.7050 C   0  0  0  0  0  0  0  0  0  0  0  0
  -51.9250   -1.2620  -23.4830 C   0  0  0  0  0  0  0  0  0  0  0  0
  -51.7830   -1.7720  -22.2020 C   0  0  0  0  0  0  0  0  0  0  0  0
  -51.6810   -0.9010  -21.1310 C   0  0  0  0  0  0  0  0  0  0  0  0
  -52.0200   -2.0810  -24.5910 C   0  0  0  0  0  0  0  0  0  0  0  0
  -52.1490   -1.5350  -25.8310 N   0  0  0  0  0  0  0  0  0  0  0  0
  -52.2180   -2.1490  -26.6420 H   0  0  0  0  0  0  0  0  0  0  0  0
  -52.1880   -0.2030  -26.0100 C   0  0  0  0  0  0  0  0  0  0  0  0
  -52.0960    0.6150  -24.9380 N   0  0  0  0  0  0  0  0  0  0  0  0
  -52.1250    1.6260  -25.0670 H   0  0  0  0  0  0  0  0  0  0  0  0
  -51.5300   -1.3480  -19.7850 N   0  0  0  0  0  0  0  0  0  0  0  0
  -50.2480   -1.6840  -19.2510 C   0  0  0  0  0  0  0  0  0  0  0  0
  -49.1810   -1.5810  -19.9060 O   0  0  0  0  0  0  0  0  0  0  0  0
  -52.3540   -1.4300  -19.1910 H   0  0  0  0  0  0  0  0  0  0  0  0
  -50.1850   -2.1620  -17.8940 C   0  0  0  0  0  0  0  0  0  0  0  0
  -50.1190   -2.5540  -16.7320 C   0  0  0  0  0  0  0  0  0  0  0  0
  -50.0580   -3.0390  -15.3510 C   0  0  0  0  0  0  0  0  0  0  0  0
  -51.0900   -2.3780  -14.5780 N   0  0  0  0  0  0  0  0  0  0  0  0
  -51.2710   -3.1430  -13.3590 C   0  0  0  0  0  0  0  0  0  0  0  0
  -50.5890   -1.0690  -14.2080 C   0  0  0  0  0  0  0  0  0  0  0  0
  -51.6230    1.3390  -20.2930 O   0  0  0  0  0  0  0  0  0  0  0  0
  -52.7450    2.0850  -19.8780 C   0  0  0  0  0  0  0  0  0  0  0  0
  -51.9930   -3.5170  -24.4490 N   0  0  0  0  0  0  0  0  0  0  0  0
  -52.8660   -4.0430  -24.4000 H   0  0  0  0  0  0  0  0  0  0  0  0
  -50.7270   -4.2030  -24.3760 C   0  0  0  0  0  0  0  0  0  0  0  0
  -50.5230   -5.2960  -23.5830 C   0  0  0  0  0  0  0  0  0  0  0  0
  -49.2640   -5.8690  -23.5770 C   0  0  0  0  0  0  0  0  0  0  0  0
  -48.9450   -7.2720  -22.5800 Cl  0  0  0  0  0  0  0  0  0  0  0  0
  -48.2190   -5.3820  -24.3330 C   0  0  0  0  0  0  0  0  0  0  0  0
  -46.9740   -5.9590  -24.3140 F   0  0  0  0  0  0  0  0  0  0  0  0
  -48.4350   -4.2770  -25.1330 C   0  0  0  0  0  0  0  0  0  0  0  0
  -49.6760   -3.7190  -25.1340 C   0  0  0  0  0  0  0  0  0  0  0  0
  -51.9007    1.9752  -22.8066 H   0  0  0  0  0  0  0  0  0  0  0  0
  -50.8967   -2.3714  -22.2017 H   0  0  0  0  0  0  0  0  0  0  0  0
  -53.1169    0.0192  -26.4924 H   0  0  0  0  0  0  0  0  0  0  0  0
  -49.0981   -2.8166  -14.9338 H   0  0  0  0  0  0  0  0  0  0  0  0
  -50.2104   -4.0979  -15.3305 H   0  0  0  0  0  0  0  0  0  0  0  0
  -51.6413   -4.1173  -13.6010 H   0  0  0  0  0  0  0  0  0  0  0  0
  -51.9722   -2.6424  -12.7245 H   0  0  0  0  0  0  0  0  0  0  0  0
  -50.3330   -3.2337  -12.8522 H   0  0  0  0  0  0  0  0  0  0  0  0
  -50.4452   -0.4799  -15.0896 H   0  0  0  0  0  0  0  0  0  0  0  0
  -49.6564   -1.1761  -13.6945 H   0  0  0  0  0  0  0  0  0  0  0  0
  -51.2956   -0.5848  -13.5668 H   0  0  0  0  0  0  0  0  0  0  0  0
  -52.4746    2.7043  -19.0484 H   0  0  0  0  0  0  0  0  0  0  0  0
  -53.5283    1.4177  -19.5846 H   0  0  0  0  0  0  0  0  0  0  0  0
  -53.0837    2.6992  -20.6861 H   0  0  0  0  0  0  0  0  0  0  0  0
  -51.2856   -5.6830  -23.0053 H   0  0  0  0  0  0  0  0  0  0  0  0
  -47.6767   -3.8857  -25.7135 H   0  0  0  0  0  0  0  0  0  0  0  0
  -49.8414   -2.8931  -25.7303 H   0  0  0  0  0  0  0  0  0  0  0  0
  1  6  2  0  0  0  0
  1 23  1  0  0  0  0
  2  1  1  0  0  0  0
  2 35  1  0  0  0  0
  3  4  1  0  0  0  0
  3  2  2  0  0  0  0
  4  5  1  0  0  0  0
  5  6  1  0  0  0  0
  5 36  1  0  0  0  0
  6 13  1  0  0  0  0
  7 25  1  0  0  0  0
  7  4  2  0  0  0  0
  8  7  1  0  0  0  0
  9  8  1  0  0  0  0
 10  8  1  0  0  0  0
 10 11  1  0  0  0  0
 10 37  1  0  0  0  0
 11  3  1  0  0  0  0
 12 11  1  0  0  0  0
 13 14  1  0  0  0  0
 13 16  1  0  0  0  0
 14 17  1  0  0  0  0
 15 14  2  0  0  0  0
 17 18  3  0  0  0  0
 18 19  1  0  0  0  0
 19 20  1  0  0  0  0
 19 38  1  0  0  0  0
 19 39  1  0  0  0  0
 20 22  1  0  0  0  0
 20 21  1  0  0  0  0
 21 40  1  0  0  0  0
 21 41  1  0  0  0  0
 21 42  1  0  0  0  0
 22 43  1  0  0  0  0
 22 44  1  0  0  0  0
 22 45  1  0  0  0  0
 23 24  1  0  0  0  0
 24 46  1  0  0  0  0
 24 47  1  0  0  0  0
 24 48  1  0  0  0  0
 25 26  1  0  0  0  0
 25 27  1  0  0  0  0
 27 28  2  0  0  0  0
 28 29  1  0  0  0  0
 28 49  1  0  0  0  0
 29 30  1  0  0  0  0
 31 32  1  0  0  0  0
 31 29  2  0  0  0  0
 33 31  1  0  0  0  0
 33 50  1  0  0  0  0
 34 33  2  0  0  0  0
 34 27  1  0  0  0  0
 34 51  1  0  0  0  0
M  END
>  <REMARK>
 VINA RESULT:      -6.6      2.987      3.921
  7 active torsions:
  status: ('A' for Active; 'I' for Inactive)
    1  A    between atoms: O_2  and  C_3 
    2  A    between atoms: C_8  and  N_9 
       I    between atoms: N_9  and  C_11 
    3  A    between atoms: C_11  and  C_13 
    4  A    between atoms: C_14  and  C_15 
    5  A    between atoms: C_15  and  N_16 
    6  A    between atoms: C_19  and  N_20 
    7  A    between atoms: N_20  and  C_22 

>  <TORSDO>
F 7

$$$$
