resistance_project/docking/8faf60323ce63d5a/P00533_T790M/docked/molecule_0010_out.pdbqt
 OpenBabel09142609553D

 61 65  0  0  1  0  0  0  0  0999 V2000
  -49.6180    0.0020  -16.7760 C   0  0  0  0  0  0  0  0  0  0  0  0
  -49.7510    0.0840  -18.1500 C   0  0  0  0  0  0  0  0  0  0  0  0
  -50.8000    0.8020  -18.7090 C   0  0  0  0  0  0  0  0  0  0  0  0
  -51.7420    1.4560  -17.9430 C   0  0  0  0  0  0  0  0  0  0  0  0
  -51.5970    1.3660  -16.5680 C   0  0  0  0  0  0  0  0  0  0  0  0
  -50.5530    0.6520  -15.9960 C   0  0  0  0  0  0  0  0  0  0  0  0
  -52.7470    2.1430  -18.5190 N   0  0  0  0  0  0  0  0  0  0  0  0
  -53.4280    2.6160  -17.9260 H   0  0  0  0  0  0  0  0  0  0  0  0
  -52.8750    2.2230  -19.8640 C   0  0  0  0  0  0  0  0  0  0  0  0
  -51.9660    1.5900  -20.6250 N   0  0  0  0  0  0  0  0  0  0  0  0
  -52.0540    1.6440  -21.6400 H   0  0  0  0  0  0  0  0  0  0  0  0
  -50.9420    0.8900  -20.0990 C   0  0  0  0  0  0  0  0  0  0  0  0
  -50.4220    0.5710  -14.5970 O   0  0  0  0  0  0  0  0  0  0  0  0
  -51.2610   -0.2050  -13.8030 C   0  0  0  0  0  0  0  0  0  0  0  0
  -50.4820   -1.1690  -12.9340 C   0  0  2  0  0  0  0  0  0  0  0  0
  -50.2880   -2.4760  -13.6680 C   0  0  0  0  0  0  0  0  0  0  0  0
  -50.6400   -3.6010  -12.8570 N   0  0  1  0  0  0  0  0  0  0  0  0
  -49.6070   -4.0400  -11.9530 C   0  0  0  0  0  0  0  0  0  0  0  0
  -51.9370   -3.5330  -12.2510 C   0  0  1  0  0  0  0  0  0  0  0  0
  -49.7600   -3.4850  -10.5600 C   0  0  0  0  0  0  0  0  0  0  0  0
  -51.0570   -3.5210  -10.0880 O   0  0  0  0  0  0  0  0  0  0  0  0
  -51.8650   -4.2800  -10.9150 C   0  0  0  0  0  0  0  0  0  0  0  0
  -52.2680   -2.0990  -11.9040 C   0  0  0  0  0  0  0  0  0  0  0  0
  -51.1060   -1.3580  -11.6980 O   0  0  0  0  0  0  0  0  0  0  0  0
  -48.5720   -0.7140  -16.2130 O   0  0  0  0  0  0  0  0  0  0  0  0
  -48.2900   -1.9950  -16.7680 C   0  0  0  0  0  0  0  0  0  0  0  0
  -49.9920    0.2300  -20.9550 N   0  0  0  0  0  0  0  0  0  0  0  0
  -49.0620    0.6280  -21.0830 H   0  0  0  0  0  0  0  0  0  0  0  0
  -50.3490   -0.9750  -21.6250 C   0  0  0  0  0  0  0  0  0  0  0  0
  -50.1410   -2.2220  -21.0440 C   0  0  0  0  0  0  0  0  0  0  0  0
  -50.4930   -3.3980  -21.7070 C   0  0  0  0  0  0  0  0  0  0  0  0
  -50.2110   -4.9520  -20.9370 Cl  0  0  0  0  0  0  0  0  0  0  0  0
  -51.0570   -3.2880  -22.9600 C   0  0  0  0  0  0  0  0  0  0  0  0
  -51.5470   -4.8980  -23.8830 Br  0  0  0  0  0  0  0  0  0  0  0  0
  -51.2640   -2.0360  -23.5350 C   0  0  0  0  0  0  0  0  0  0  0  0
  -50.9130   -0.8640  -22.8760 C   0  0  0  0  0  0  0  0  0  0  0  0
  -51.1310    0.3240  -23.4730 F   0  0  0  0  0  0  0  0  0  0  0  0
  -48.8472    0.5200  -18.5213 H   0  0  0  0  0  0  0  0  0  0  0  0
  -49.9672   -0.9246  -18.4345 H   0  0  0  0  0  0  0  0  0  0  0  0
  -52.2797    1.8399  -15.9561 H   0  0  0  0  0  0  0  0  0  0  0  0
  -53.8347    1.8227  -20.1162 H   0  0  0  0  0  0  0  0  0  0  0  0
  -52.7305    3.2601  -20.0840 H   0  0  0  0  0  0  0  0  0  0  0  0
  -51.9179   -0.7636  -14.4365 H   0  0  0  0  0  0  0  0  0  0  0  0
  -51.8105    0.4511  -13.1607 H   0  0  0  0  0  0  0  0  0  0  0  0
  -49.5189   -0.7491  -12.7314 H   0  0  0  0  0  0  0  0  0  0  0  0
  -49.2604   -2.5633  -13.9533 H   0  0  0  0  0  0  0  0  0  0  0  0
  -50.9276   -2.4726  -14.5258 H   0  0  0  0  0  0  0  0  0  0  0  0
  -48.6602   -3.7274  -12.3413 H   0  0  0  0  0  0  0  0  0  0  0  0
  -49.6805   -5.1050  -11.8802 H   0  0  0  0  0  0  0  0  0  0  0  0
  -52.6625   -3.9422  -12.9226 H   0  0  0  0  0  0  0  0  0  0  0  0
  -49.4299   -2.4672  -10.5637 H   0  0  0  0  0  0  0  0  0  0  0  0
  -49.1737   -4.1018   -9.9113 H   0  0  0  0  0  0  0  0  0  0  0  0
  -51.4408   -5.2521  -11.0566 H   0  0  0  0  0  0  0  0  0  0  0  0
  -52.8385   -4.4132  -10.4914 H   0  0  0  0  0  0  0  0  0  0  0  0
  -52.8579   -2.0814  -11.0115 H   0  0  0  0  0  0  0  0  0  0  0  0
  -52.8106   -1.6660  -12.7182 H   0  0  0  0  0  0  0  0  0  0  0  0
  -47.4670   -2.4366  -16.2459 H   0  0  0  0  0  0  0  0  0  0  0  0
  -48.0399   -1.8881  -17.8029 H   0  0  0  0  0  0  0  0  0  0  0  0
  -49.1513   -2.6227  -16.6722 H   0  0  0  0  0  0  0  0  0  0  0  0
  -49.7181   -2.2781  -20.1043 H   0  0  0  0  0  0  0  0  0  0  0  0
  -51.6886   -1.9775  -24.4738 H   0  0  0  0  0  0  0  0  0  0  0  0
  1 25  1  0  0  0  0
  1  6  2  0  0  0  0
  2  1  1  0  0  0  0
  2 38  1  0  0  0  0
  2 39  1  0  0  0  0
  3  2  1  0  0  0  0
  3  4  1  0  0  0  0
  4  5  2  0  0  0  0
  5  6  1  0  0  0  0
  5 40  1  0  0  0  0
  6 13  1  0  0  0  0
  7  4  1  0  0  0  0
  7  8  1  0  0  0  0
  9  7  1  0  0  0  0
  9 41  1  0  0  0  0
  9 42  1  0  0  0  0
 10 12  1  0  0  0  0
 10  9  1  0  0  0  0
 11 10  1  0  0  0  0
 12  3  2  0  0  0  0
 13 14  1  0  0  0  0
 14 15  1  0  0  0  0
 14 43  1  0  0  0  0
 14 44  1  0  0  0  0
 15 24  1  0  0  0  0
 15 45  1  1  0  0  0
 16 15  1  0  0  0  0
 16 17  1  0  0  0  0
 16 46  1  0  0  0  0
 16 47  1  0  0  0  0
 17 19  1  1  0  0  0
 17 18  1  0  0  0  0
 18 20  1  0  0  0  0
 18 48  1  0  0  0  0
 18 49  1  0  0  0  0
 19 23  1  0  0  0  0
 19 22  1  0  0  0  0
 19 50  1  6  0  0  0
 20 21  1  0  0  0  0
 20 51  1  0  0  0  0
 20 52  1  0  0  0  0
 22 21  1  0  0  0  0
 22 53  1  0  0  0  0
 22 54  1  0  0  0  0
 23 24  1  0  0  0  0
 23 55  1  0  0  0  0
 23 56  1  0  0  0  0
 26 25  1  0  0  0  0
 26 57  1  0  0  0  0
 26 58  1  0  0  0  0
 26 59  1  0  0  0  0
 27 12  1  0  0  0  0
 28 27  1  0  0  0  0
 29 30  1  0  0  0  0
 29 27  1  0  0  0  0
 30 60  1  0  0  0  0
 31 30  2  0  0  0  0
 31 32  1  0  0  0  0
 33 31  1  0  0  0  0
 34 33  1  0  0  0  0
 35 33  2  0  0  0  0
 35 36  1  0  0  0  0
 35 61  1  0  0  0  0
 36 29  2  0  0  0  0
 37 36  1  0  0  0  0
M  END
>  <MODEL>
1

>  <REMARK>
 VINA RESULT:      -8.2      0.000      0.000
  6 active torsions:
  status: ('A' for Active; 'I' for Inactive)
    1  A    between atoms: O_2  and  C_3 
    2  A    between atoms: C_8  and  O_9 
    3  A    between atoms: O_9  and  C_10 
    4  A    between atoms: C_10  and  C_11 
    5  A    between atoms: C_26  and  N_27 
    6  A    between atoms: N_27  and  C_29 

>  <TORSDO>
F 6

$$$$
resistance_project/docking/8faf60323ce63d5a/P00533_T790M/docked/molecule_0010_out.pdbqt
 OpenBabel09142609553D

 61 65  0  0  1  0  0  0  0  0999 V2000
  -49.6520    0.0530  -16.7210 C   0  0  0  0  0  0  0  0  0  0  0  0
  -49.7640    0.1120  -18.0980 C   0  0  0  0  0  0  0  0  0  0  0  0
  -50.8080    0.8140  -18.6860 C   0  0  0  0  0  0  0  0  0  0  0  0
  -51.7660    1.4750  -17.9460 C   0  0  0  0  0  0  0  0  0  0  0  0
  -51.6420    1.4080  -16.5670 C   0  0  0  0  0  0  0  0  0  0  0  0
  -50.6030    0.7100  -15.9670 C   0  0  0  0  0  0  0  0  0  0  0  0
  -52.7650    2.1460  -18.5480 N   0  0  0  0  0  0  0  0  0  0  0  0
  -53.4590    2.6250  -17.9740 H   0  0  0  0  0  0  0  0  0  0  0  0
  -52.8730    2.2030  -19.8960 C   0  0  0  0  0  0  0  0  0  0  0  0
  -51.9480    1.5640  -20.6330 N   0  0  0  0  0  0  0  0  0  0  0  0
  -52.0200    1.6000  -21.6500 H   0  0  0  0  0  0  0  0  0  0  0  0
  -50.9290    0.8780  -20.0790 C   0  0  0  0  0  0  0  0  0  0  0  0
  -50.4940    0.6530  -14.5650 O   0  0  0  0  0  0  0  0  0  0  0  0
  -51.3290   -0.1300  -13.7730 C   0  0  0  0  0  0  0  0  0  0  0  0
  -50.5510   -1.1430  -12.9620 C   0  0  2  0  0  0  0  0  0  0  0  0
  -50.4850   -2.4540  -13.7110 C   0  0  0  0  0  0  0  0  0  0  0  0
  -50.8460   -3.5620  -12.8820 N   0  0  1  0  0  0  0  0  0  0  0  0
  -49.7810   -4.0680  -12.0520 C   0  0  0  0  0  0  0  0  0  0  0  0
  -52.0930   -3.4230  -12.1880 C   0  0  1  0  0  0  0  0  0  0  0  0
  -49.8060   -3.5140  -10.6500 C   0  0  0  0  0  0  0  0  0  0  0  0
  -51.0680   -3.4770  -10.0900 O   0  0  0  0  0  0  0  0  0  0  0  0
  -51.9740   -4.1820  -10.8620 C   0  0  0  0  0  0  0  0  0  0  0  0
  -52.3150   -1.9740  -11.8150 C   0  0  0  0  0  0  0  0  0  0  0  0
  -51.0990   -1.3040  -11.6870 O   0  0  0  0  0  0  0  0  0  0  0  0
  -48.6110   -0.6470  -16.1300 O   0  0  0  0  0  0  0  0  0  0  0  0
  -48.3110   -1.9340  -16.6620 C   0  0  0  0  0  0  0  0  0  0  0  0
  -49.9620    0.2110  -20.9090 N   0  0  0  0  0  0  0  0  0  0  0  0
  -49.0180    0.5890  -20.9950 H   0  0  0  0  0  0  0  0  0  0  0  0
  -50.3190   -0.9760  -21.6110 C   0  0  0  0  0  0  0  0  0  0  0  0
  -51.0840   -0.9350  -22.7720 C   0  0  0  0  0  0  0  0  0  0  0  0
  -51.4300   -2.1020  -23.4530 C   0  0  0  0  0  0  0  0  0  0  0  0
  -52.3990   -2.0040  -24.9160 Cl  0  0  0  0  0  0  0  0  0  0  0  0
  -50.9890   -3.3040  -22.9400 C   0  0  0  0  0  0  0  0  0  0  0  0
  -51.4570   -4.9170  -23.8680 Br  0  0  0  0  0  0  0  0  0  0  0  0
  -50.2220   -3.3370  -21.7780 C   0  0  0  0  0  0  0  0  0  0  0  0
  -49.8780   -2.1750  -21.0980 C   0  0  0  0  0  0  0  0  0  0  0  0
  -49.1350   -2.2580  -19.9770 F   0  0  0  0  0  0  0  0  0  0  0  0
  -48.8570    0.5475  -18.4620 H   0  0  0  0  0  0  0  0  0  0  0  0
  -49.9703   -0.9024  -18.3688 H   0  0  0  0  0  0  0  0  0  0  0  0
  -52.3371    1.8874  -15.9737 H   0  0  0  0  0  0  0  0  0  0  0  0
  -53.8260    1.7917  -20.1560 H   0  0  0  0  0  0  0  0  0  0  0  0
  -52.7322    3.2374  -20.1307 H   0  0  0  0  0  0  0  0  0  0  0  0
  -52.0185   -0.6492  -14.4054 H   0  0  0  0  0  0  0  0  0  0  0  0
  -51.8418    0.5166  -13.0919 H   0  0  0  0  0  0  0  0  0  0  0  0
  -49.5536   -0.7810  -12.8244 H   0  0  0  0  0  0  0  0  0  0  0  0
  -49.4863   -2.5992  -14.0664 H   0  0  0  0  0  0  0  0  0  0  0  0
  -51.1809   -2.4071  -14.5224 H   0  0  0  0  0  0  0  0  0  0  0  0
  -48.8460   -3.8092  -12.5033 H   0  0  0  0  0  0  0  0  0  0  0  0
  -49.9119   -5.1273  -11.9776 H   0  0  0  0  0  0  0  0  0  0  0  0
  -52.8853   -3.7850  -12.8094 H   0  0  0  0  0  0  0  0  0  0  0  0
  -49.4176   -2.5173  -10.6737 H   0  0  0  0  0  0  0  0  0  0  0  0
  -49.2144   -4.1685  -10.0446 H   0  0  0  0  0  0  0  0  0  0  0  0
  -51.6184   -5.1762  -11.0350 H   0  0  0  0  0  0  0  0  0  0  0  0
  -52.9225   -4.2609  -10.3730 H   0  0  0  0  0  0  0  0  0  0  0  0
  -52.8406   -1.9279  -10.8841 H   0  0  0  0  0  0  0  0  0  0  0  0
  -52.8858   -1.5042  -12.5886 H   0  0  0  0  0  0  0  0  0  0  0  0
  -47.4940   -2.3624  -16.1199 H   0  0  0  0  0  0  0  0  0  0  0  0
  -48.0441   -1.8400  -17.6939 H   0  0  0  0  0  0  0  0  0  0  0  0
  -49.1695   -2.5662  -16.5718 H   0  0  0  0  0  0  0  0  0  0  0  0
  -51.4018   -0.0233  -23.1366 H   0  0  0  0  0  0  0  0  0  0  0  0
  -49.9011   -4.2473  -21.4128 H   0  0  0  0  0  0  0  0  0  0  0  0
  1 25  1  0  0  0  0
  1  6  2  0  0  0  0
  2  1  1  0  0  0  0
  2 38  1  0  0  0  0
  2 39  1  0  0  0  0
  3  2  1  0  0  0  0
  3  4  1  0  0  0  0
  4  5  2  0  0  0  0
  5  6  1  0  0  0  0
  5 40  1  0  0  0  0
  6 13  1  0  0  0  0
  7  8  1  0  0  0  0
  7  4  1  0  0  0  0
  9  7  1  0  0  0  0
  9 41  1  0  0  0  0
  9 42  1  0  0  0  0
 10 12  1  0  0  0  0
 10  9  1  0  0  0  0
 11 10  1  0  0  0  0
 12  3  2  0  0  0  0
 13 14  1  0  0  0  0
 14 15  1  0  0  0  0
 14 43  1  0  0  0  0
 14 44  1  0  0  0  0
 15 24  1  0  0  0  0
 15 45  1  1  0  0  0
 16 15  1  0  0  0  0
 16 17  1  0  0  0  0
 16 46  1  0  0  0  0
 16 47  1  0  0  0  0
 17 19  1  1  0  0  0
 17 18  1  0  0  0  0
 18 20  1  0  0  0  0
 18 48  1  0  0  0  0
 18 49  1  0  0  0  0
 19 23  1  0  0  0  0
 19 22  1  0  0  0  0
 19 50  1  6  0  0  0
 20 21  1  0  0  0  0
 20 51  1  0  0  0  0
 20 52  1  0  0  0  0
 22 21  1  0  0  0  0
 22 53  1  0  0  0  0
 22 54  1  0  0  0  0
 23 24  1  0  0  0  0
 23 55  1  0  0  0  0
 23 56  1  0  0  0  0
 26 25  1  0  0  0  0
 26 57  1  0  0  0  0
 26 58  1  0  0  0  0
 26 59  1  0  0  0  0
 27 12  1  0  0  0  0
 28 27  1  0  0  0  0
 29 36  1  0  0  0  0
 29 27  1  0  0  0  0
 30 29  2  0  0  0  0
 30 60  1  0  0  0  0
 31 33  2  0  0  0  0
 31 30  1  0  0  0  0
 32 31  1  0  0  0  0
 33 35  1  0  0  0  0
 34 33  1  0  0  0  0
 35 36  2  0  0  0  0
 35 61  1  0  0  0  0
 36 37  1  0  0  0  0
M  END
>  <REMARK>
 VINA RESULT:      -8.1      1.246      1.490
  6 active torsions:
  status: ('A' for Active; 'I' for Inactive)
    1  A    between atoms: O_2  and  C_3 
    2  A    between atoms: C_8  and  O_9 
    3  A    between atoms: O_9  and  C_10 
    4  A    between atoms: C_10  and  C_11 
    5  A    between atoms: C_26  and  N_27 
    6  A    between atoms: N_27  and  C_29 

>  <TORSDO>
F 6

$$$$
resistance_project/docking/8faf60323ce63d5a/P00533_T790M/docked/molecule_0010_out.pdbqt
 OpenBabel09142609553D

 63 67  0  0  1  0  0  0  0  0999 V2000
  -48.8990   -0.5920  -18.1690 C   0  0  0  0  0  0  0  0  0  0  0  0
  -50.0340    0.0350  -17.6890 C   0  0  0  0  0  0  0  0  0  0  0  0
  -50.8680    0.7300  -18.5540 C   0  0  0  0  0  0  0  0  0  0  0  0
  -50.6170    0.8300  -19.9060 C   0  0  0  0  0  0  0  0  0  0  0  0
  -49.4760    0.1970  -20.3740 C   0  0  0  0  0  0  0  0  0  0  0  0
  -48.6340   -0.5020  -19.5210 C   0  0  0  0  0  0  0  0  0  0  0  0
  -51.4470    1.5130  -20.7170 N   0  0  0  0  0  0  0  0  0  0  0  0
  -51.2340    1.5690  -21.7120 H   0  0  0  0  0  0  0  0  0  0  0  0
  -52.5570    2.1260  -20.2450 C   0  0  0  0  0  0  0  0  0  0  0  0
  -52.8170    2.0390  -18.9290 N   0  0  0  0  0  0  0  0  0  0  0  0
  -53.6520    2.4980  -18.5630 H   0  0  0  0  0  0  0  0  0  0  0  0
  -52.0190    1.3680  -18.0750 C   0  0  2  0  0  0  0  0  0  0  0  0
  -47.4800   -1.1390  -20.0140 O   0  0  0  0  0  0  0  0  0  0  0  0
  -47.3690   -1.5910  -21.3260 C   0  0  0  0  0  0  0  0  0  0  0  0
  -47.7960   -3.0360  -21.4620 C   0  0  2  0  0  0  0  0  0  0  0  0
  -46.9840   -3.7080  -22.5460 C   0  0  0  0  0  0  0  0  0  0  0  0
  -47.8120   -4.4240  -23.4670 N   0  0  1  0  0  0  0  0  0  0  0  0
  -48.1930   -5.7460  -23.0350 C   0  0  0  0  0  0  0  0  0  0  0  0
  -48.8980   -3.6720  -24.0230 C   0  0  1  0  0  0  0  0  0  0  0  0
  -49.5520   -5.7910  -22.3840 C   0  0  0  0  0  0  0  0  0  0  0  0
  -50.5110   -5.0540  -23.0520 O   0  0  0  0  0  0  0  0  0  0  0  0
  -50.0500   -4.6460  -24.2900 C   0  0  0  0  0  0  0  0  0  0  0  0
  -49.4200   -2.6880  -22.9990 C   0  0  0  0  0  0  0  0  0  0  0  0
  -49.1680   -3.1410  -21.7040 O   0  0  0  0  0  0  0  0  0  0  0  0
  -48.0630   -1.2880  -17.3080 O   0  0  0  0  0  0  0  0  0  0  0  0
  -48.3170   -1.1590  -15.9130 C   0  0  0  0  0  0  0  0  0  0  0  0
  -52.3390    1.3020  -16.6750 N   0  0  0  0  0  0  0  0  0  0  0  0
  -52.8270    0.4870  -16.3020 H   0  0  0  0  0  0  0  0  0  0  0  0
  -51.9780    2.3720  -15.8070 C   0  0  0  0  0  0  0  0  0  0  0  0
  -52.4390    3.6680  -16.0140 C   0  0  0  0  0  0  0  0  0  0  0  0
  -52.0800    4.7110  -15.1600 C   0  0  0  0  0  0  0  0  0  0  0  0
  -52.6860    6.3330  -15.4590 Cl  0  0  0  0  0  0  0  0  0  0  0  0
  -51.2510    4.4180  -14.0980 C   0  0  0  0  0  0  0  0  0  0  0  0
  -50.7510    5.8430  -12.9130 Br  0  0  0  0  0  0  0  0  0  0  0  0
  -50.7940    3.1180  -13.8950 C   0  0  0  0  0  0  0  0  0  0  0  0
  -51.1500    2.0790  -14.7460 C   0  0  0  0  0  0  0  0  0  0  0  0
  -50.6820    0.8380  -14.5100 F   0  0  0  0  0  0  0  0  0  0  0  0
  -50.6321   -0.7227  -17.2273 H   0  0  0  0  0  0  0  0  0  0  0  0
  -49.6388    0.8056  -17.0606 H   0  0  0  0  0  0  0  0  0  0  0  0
  -48.8776    0.9549  -20.8348 H   0  0  0  0  0  0  0  0  0  0  0  0
  -49.8796   -0.5810  -20.9878 H   0  0  0  0  0  0  0  0  0  0  0  0
  -53.3951    1.7084  -20.7628 H   0  0  0  0  0  0  0  0  0  0  0  0
  -52.3777    3.1675  -20.4127 H   0  0  0  0  0  0  0  0  0  0  0  0
  -52.9508    1.8353  -17.8333 H   0  0  0  0  0  0  0  0  0  0  0  0
  -47.9893   -0.9863  -21.9540 H   0  0  0  0  0  0  0  0  0  0  0  0
  -46.3415   -1.5198  -21.6158 H   0  0  0  0  0  0  0  0  0  0  0  0
  -47.6079   -3.5395  -20.5368 H   0  0  0  0  0  0  0  0  0  0  0  0
  -46.4368   -2.9607  -23.0817 H   0  0  0  0  0  0  0  0  0  0  0  0
  -46.3242   -4.4092  -22.0793 H   0  0  0  0  0  0  0  0  0  0  0  0
  -47.4672   -6.0957  -22.3309 H   0  0  0  0  0  0  0  0  0  0  0  0
  -48.2383   -6.3641  -23.9072 H   0  0  0  0  0  0  0  0  0  0  0  0
  -48.5622   -3.1670  -24.9045 H   0  0  0  0  0  0  0  0  0  0  0  0
  -49.8750   -6.8104  -22.3457 H   0  0  0  0  0  0  0  0  0  0  0  0
  -49.4474   -5.3599  -21.4103 H   0  0  0  0  0  0  0  0  0  0  0  0
  -49.7005   -5.4877  -24.8506 H   0  0  0  0  0  0  0  0  0  0  0  0
  -50.8273   -4.1807  -24.8594 H   0  0  0  0  0  0  0  0  0  0  0  0
  -50.4754   -2.5713  -23.1307 H   0  0  0  0  0  0  0  0  0  0  0  0
  -48.9217   -1.7514  -23.1380 H   0  0  0  0  0  0  0  0  0  0  0  0
  -47.6059   -1.7418  -15.3656 H   0  0  0  0  0  0  0  0  0  0  0  0
  -49.3054   -1.5071  -15.6968 H   0  0  0  0  0  0  0  0  0  0  0  0
  -48.2305   -0.1312  -15.6283 H   0  0  0  0  0  0  0  0  0  0  0  0
  -53.0593    3.8619  -16.8157 H   0  0  0  0  0  0  0  0  0  0  0  0
  -50.1756    2.9216  -13.0925 H   0  0  0  0  0  0  0  0  0  0  0  0
  1  2  1  0  0  0  0
  1 25  1  0  0  0  0
  2 38  1  0  0  0  0
  2 39  1  0  0  0  0
  3 12  1  0  0  0  0
  3  2  1  0  0  0  0
  4  3  2  0  0  0  0
  5  4  1  0  0  0  0
  5  6  1  0  0  0  0
  5 40  1  0  0  0  0
  5 41  1  0  0  0  0
  6  1  2  0  0  0  0
  7  9  1  0  0  0  0
  7  4  1  0  0  0  0
  8  7  1  0  0  0  0
  9 10  1  0  0  0  0
  9 42  1  0  0  0  0
  9 43  1  0  0  0  0
 10 11  1  0  0  0  0
 10 12  1  0  0  0  0
 12 27  1  0  0  0  0
 12 44  1  6  0  0  0
 13  6  1  0  0  0  0
 14 13  1  0  0  0  0
 14 45  1  0  0  0  0
 14 46  1  0  0  0  0
 15 14  1  0  0  0  0
 15 47  1  1  0  0  0
 16 15  1  0  0  0  0
 16 48  1  0  0  0  0
 16 49  1  0  0  0  0
 17 19  1  1  0  0  0
 17 18  1  0  0  0  0
 17 16  1  0  0  0  0
 18 20  1  0  0  0  0
 18 50  1  0  0  0  0
 18 51  1  0  0  0  0
 19 23  1  0  0  0  0
 19 52  1  6  0  0  0
 20 53  1  0  0  0  0
 20 54  1  0  0  0  0
 21 20  1  0  0  0  0
 22 19  1  0  0  0  0
 22 21  1  0  0  0  0
 22 55  1  0  0  0  0
 22 56  1  0  0  0  0
 23 24  1  0  0  0  0
 23 57  1  0  0  0  0
 23 58  1  0  0  0  0
 24 15  1  0  0  0  0
 25 26  1  0  0  0  0
 26 59  1  0  0  0  0
 26 60  1  0  0  0  0
 26 61  1  0  0  0  0
 27 28  1  0  0  0  0
 27 29  1  0  0  0  0
 29 36  1  0  0  0  0
 30 29  2  0  0  0  0
 30 31  1  0  0  0  0
 30 62  1  0  0  0  0
 31 33  2  0  0  0  0
 32 31  1  0  0  0  0
 33 35  1  0  0  0  0
 33 34  1  0  0  0  0
 35 63  1  0  0  0  0
 36 37  1  0  0  0  0
 36 35  2  0  0  0  0
M  END
>  <REMARK>
 VINA RESULT:      -8.1      5.095      8.662
  6 active torsions:
  status: ('A' for Active; 'I' for Inactive)
    1  A    between atoms: O_2  and  C_3 
    2  A    between atoms: C_8  and  O_9 
    3  A    between atoms: O_9  and  C_10 
    4  A    between atoms: C_10  and  C_11 
    5  A    between atoms: C_26  and  N_27 
    6  A    between atoms: N_27  and  C_29 

>  <TORSDO>
F 6

$$$$
resistance_project/docking/8faf60323ce63d5a/P00533_T790M/docked/molecule_0010_out.pdbqt
 OpenBabel09142609553D

 63 67  0  0  1  0  0  0  0  0999 V2000
  -49.5290   -0.5560  -18.9120 C   0  0  0  0  0  0  0  0  0  0  0  0
  -49.7130   -0.2460  -17.5770 C   0  0  0  0  0  0  0  0  0  0  0  0
  -50.6430    0.7150  -17.2030 C   0  0  0  0  0  0  0  0  0  0  0  0
  -51.4150    1.3950  -18.1220 C   0  0  0  0  0  0  0  0  0  0  0  0
  -51.2200    1.0750  -19.4570 C   0  0  0  0  0  0  0  0  0  0  0  0
  -50.2940    0.1160  -19.8430 C   0  0  0  0  0  0  0  0  0  0  0  0
  -52.3080    2.3210  -17.7260 N   0  0  0  0  0  0  0  0  0  0  0  0
  -52.8630    2.8080  -18.4290 H   0  0  0  0  0  0  0  0  0  0  0  0
  -52.4870    2.6230  -16.4190 C   0  0  0  0  0  0  0  0  0  0  0  0
  -51.7420    1.9700  -15.5100 N   0  0  0  0  0  0  0  0  0  0  0  0
  -51.8700    2.1900  -14.5220 H   0  0  0  0  0  0  0  0  0  0  0  0
  -50.8360    1.0340  -15.8540 C   0  0  2  0  0  0  0  0  0  0  0  0
  -50.1100   -0.1960  -21.2030 O   0  0  0  0  0  0  0  0  0  0  0  0
  -51.1690   -0.3580  -22.0910 C   0  0  0  0  0  0  0  0  0  0  0  0
  -50.7320   -1.0340  -23.3730 C   0  0  2  0  0  0  0  0  0  0  0  0
  -51.9380   -1.3120  -24.2400 C   0  0  0  0  0  0  0  0  0  0  0  0
  -51.9540   -2.6610  -24.7160 N   0  0  1  0  0  0  0  0  0  0  0  0
  -51.1480   -2.8980  -25.8880 C   0  0  0  0  0  0  0  0  0  0  0  0
  -51.7980   -3.6660  -23.7050 C   0  0  1  0  0  0  0  0  0  0  0  0
  -49.7780   -3.4400  -25.5690 C   0  0  0  0  0  0  0  0  0  0  0  0
  -49.7840   -4.4320  -24.6080 O   0  0  0  0  0  0  0  0  0  0  0  0
  -51.0730   -4.8570  -24.3420 C   0  0  0  0  0  0  0  0  0  0  0  0
  -50.8800   -3.1600  -22.6150 C   0  0  0  0  0  0  0  0  0  0  0  0
  -50.0030   -2.1980  -23.1120 O   0  0  0  0  0  0  0  0  0  0  0  0
  -48.6010   -1.5160  -19.2880 O   0  0  0  0  0  0  0  0  0  0  0  0
  -47.9480   -2.2320  -18.2440 C   0  0  0  0  0  0  0  0  0  0  0  0
  -50.0630    0.3610  -14.8460 N   0  0  0  0  0  0  0  0  0  0  0  0
  -49.0790    0.5950  -14.7170 H   0  0  0  0  0  0  0  0  0  0  0  0
  -50.6690   -0.6340  -14.0260 C   0  0  0  0  0  0  0  0  0  0  0  0
  -51.6490   -0.3130  -13.0920 C   0  0  0  0  0  0  0  0  0  0  0  0
  -52.2370   -1.2930  -12.2920 C   0  0  0  0  0  0  0  0  0  0  0  0
  -53.4710   -0.8430  -11.1250 Cl  0  0  0  0  0  0  0  0  0  0  0  0
  -51.8190   -2.5960  -12.4560 C   0  0  0  0  0  0  0  0  0  0  0  0
  -52.6210   -3.9550  -11.3640 Br  0  0  0  0  0  0  0  0  0  0  0  0
  -50.8380   -2.9110  -13.3940 C   0  0  0  0  0  0  0  0  0  0  0  0
  -50.2500   -1.9350  -14.1900 C   0  0  0  0  0  0  0  0  0  0  0  0
  -49.3050   -2.2880  -15.0830 F   0  0  0  0  0  0  0  0  0  0  0  0
  -48.7652    0.0816  -17.2039 H   0  0  0  0  0  0  0  0  0  0  0  0
  -50.1202   -1.1488  -17.1719 H   0  0  0  0  0  0  0  0  0  0  0  0
  -52.1677    0.7480  -19.8310 H   0  0  0  0  0  0  0  0  0  0  0  0
  -50.7977    1.9757  -19.8511 H   0  0  0  0  0  0  0  0  0  0  0  0
  -53.5134    2.4302  -16.1861 H   0  0  0  0  0  0  0  0  0  0  0  0
  -52.1740    3.6428  -16.3364 H   0  0  0  0  0  0  0  0  0  0  0  0
  -51.2546    1.2151  -14.8861 H   0  0  0  0  0  0  0  0  0  0  0  0
  -51.9235   -0.9562  -21.6242 H   0  0  0  0  0  0  0  0  0  0  0  0
  -51.5451    0.6125  -22.3393 H   0  0  0  0  0  0  0  0  0  0  0  0
  -50.0782   -0.3748  -23.9048 H   0  0  0  0  0  0  0  0  0  0  0  0
  -52.8241   -1.1372  -23.6662 H   0  0  0  0  0  0  0  0  0  0  0  0
  -51.8930   -0.6617  -25.0885 H   0  0  0  0  0  0  0  0  0  0  0  0
  -51.6555   -3.6033  -26.5124 H   0  0  0  0  0  0  0  0  0  0  0  0
  -51.0107   -1.9550  -26.3746 H   0  0  0  0  0  0  0  0  0  0  0  0
  -52.7588   -3.9217  -23.3095 H   0  0  0  0  0  0  0  0  0  0  0  0
  -49.1687   -2.6334  -25.2182 H   0  0  0  0  0  0  0  0  0  0  0  0
  -49.3974   -3.8776  -26.4682 H   0  0  0  0  0  0  0  0  0  0  0  0
  -51.0573   -5.6858  -23.6654 H   0  0  0  0  0  0  0  0  0  0  0  0
  -51.5671   -5.1800  -25.2344 H   0  0  0  0  0  0  0  0  0  0  0  0
  -50.3154   -3.9802  -22.2234 H   0  0  0  0  0  0  0  0  0  0  0  0
  -51.4753   -2.7155  -21.8450 H   0  0  0  0  0  0  0  0  0  0  0  0
  -47.2631   -2.9360  -18.6686 H   0  0  0  0  0  0  0  0  0  0  0  0
  -48.6768   -2.7522  -17.6583 H   0  0  0  0  0  0  0  0  0  0  0  0
  -47.4135   -1.5457  -17.6209 H   0  0  0  0  0  0  0  0  0  0  0  0
  -51.9469    0.6697  -12.9890 H   0  0  0  0  0  0  0  0  0  0  0  0
  -50.5406   -3.8935  -13.5004 H   0  0  0  0  0  0  0  0  0  0  0  0
  1  2  1  0  0  0  0
  2  3  1  0  0  0  0
  2 38  1  0  0  0  0
  2 39  1  0  0  0  0
  3 12  1  0  0  0  0
  4  7  1  0  0  0  0
  4  3  2  0  0  0  0
  5  4  1  0  0  0  0
  5 40  1  0  0  0  0
  5 41  1  0  0  0  0
  6  5  1  0  0  0  0
  6  1  2  0  0  0  0
  7  9  1  0  0  0  0
  8  7  1  0  0  0  0
  9 10  1  0  0  0  0
  9 42  1  0  0  0  0
  9 43  1  0  0  0  0
 10 11  1  0  0  0  0
 12 10  1  0  0  0  0
 12 27  1  0  0  0  0
 12 44  1  1  0  0  0
 13  6  1  0  0  0  0
 14 13  1  0  0  0  0
 14 45  1  0  0  0  0
 14 46  1  0  0  0  0
 15 24  1  0  0  0  0
 15 14  1  0  0  0  0
 15 47  1  6  0  0  0
 16 15  1  0  0  0  0
 16 48  1  0  0  0  0
 16 49  1  0  0  0  0
 17 16  1  0  0  0  0
 17 19  1  1  0  0  0
 18 20  1  0  0  0  0
 18 17  1  0  0  0  0
 18 50  1  0  0  0  0
 18 51  1  0  0  0  0
 19 23  1  0  0  0  0
 19 52  1  1  0  0  0
 20 21  1  0  0  0  0
 20 53  1  0  0  0  0
 20 54  1  0  0  0  0
 21 22  1  0  0  0  0
 22 19  1  0  0  0  0
 22 55  1  0  0  0  0
 22 56  1  0  0  0  0
 23 57  1  0  0  0  0
 23 58  1  0  0  0  0
 24 23  1  0  0  0  0
 25  1  1  0  0  0  0
 25 26  1  0  0  0  0
 26 59  1  0  0  0  0
 26 60  1  0  0  0  0
 26 61  1  0  0  0  0
 27 28  1  0  0  0  0
 27 29  1  0  0  0  0
 29 30  1  0  0  0  0
 30 31  2  0  0  0  0
 30 62  1  0  0  0  0
 31 32  1  0  0  0  0
 33 31  1  0  0  0  0
 33 34  1  0  0  0  0
 35 33  2  0  0  0  0
 35 63  1  0  0  0  0
 36 29  2  0  0  0  0
 36 35  1  0  0  0  0
 37 36  1  0  0  0  0
M  END
>  <REMARK>
 VINA RESULT:      -7.7      4.383      8.907
  6 active torsions:
  status: ('A' for Active; 'I' for Inactive)
    1  A    between atoms: O_2  and  C_3 
    2  A    between atoms: C_8  and  O_9 
    3  A    between atoms: O_9  and  C_10 
    4  A    between atoms: C_10  and  C_11 
    5  A    between atoms: C_26  and  N_27 
    6  A    between atoms: N_27  and  C_29 

>  <TORSDO>
F 6

$$$$
resistance_project/docking/8faf60323ce63d5a/P00533_T790M/docked/molecule_0010_out.pdbqt
 OpenBabel09142609553D

 61 65  0  0  1  0  0  0  0  0999 V2000
  -51.8750   -1.2940  -21.0440 C   0  0  0  0  0  0  0  0  0  0  0  0
  -51.7270   -1.8890  -22.2840 C   0  0  0  0  0  0  0  0  0  0  0  0
  -51.6270   -1.1080  -23.4280 C   0  0  0  0  0  0  0  0  0  0  0  0
  -51.6690    0.2700  -23.3900 C   0  0  0  0  0  0  0  0  0  0  0  0
  -51.8180    0.8540  -22.1410 C   0  0  0  0  0  0  0  0  0  0  0  0
  -51.9180    0.0850  -20.9910 C   0  0  0  0  0  0  0  0  0  0  0  0
  -51.5700    0.9970  -24.5190 N   0  0  0  0  0  0  0  0  0  0  0  0
  -51.6040    2.0140  -24.4590 H   0  0  0  0  0  0  0  0  0  0  0  0
  -51.4240    0.4130  -25.7310 C   0  0  0  0  0  0  0  0  0  0  0  0
  -51.3820   -0.9300  -25.7860 N   0  0  0  0  0  0  0  0  0  0  0  0
  -51.2730   -1.3810  -26.6940 H   0  0  0  0  0  0  0  0  0  0  0  0
  -51.4780   -1.7030  -24.6860 C   0  0  0  0  0  0  0  0  0  0  0  0
  -52.0690    0.6950  -19.7310 O   0  0  0  0  0  0  0  0  0  0  0  0
  -50.9940    0.9690  -18.8910 C   0  0  0  0  0  0  0  0  0  0  0  0
  -51.3270    0.6890  -17.4410 C   0  0  2  0  0  0  0  0  0  0  0  0
  -51.1330    1.9450  -16.6220 C   0  0  0  0  0  0  0  0  0  0  0  0
  -50.3560    1.7000  -15.4460 N   0  0  1  0  0  0  0  0  0  0  0  0
  -51.1000    1.1750  -14.3290 C   0  0  0  0  0  0  0  0  0  0  0  0
  -49.1100    1.0270  -15.6680 C   0  0  1  0  0  0  0  0  0  0  0  0
  -51.0230   -0.3270  -14.2160 C   0  0  0  0  0  0  0  0  0  0  0  0
  -49.7540   -0.8340  -14.4130 O   0  0  0  0  0  0  0  0  0  0  0  0
  -48.8120    0.1790  -14.4270 C   0  0  0  0  0  0  0  0  0  0  0  0
  -49.2500    0.0480  -16.8120 C   0  0  0  0  0  0  0  0  0  0  0  0
  -50.5720   -0.3760  -16.9420 O   0  0  0  0  0  0  0  0  0  0  0  0
  -51.9750   -2.0700  -19.9000 O   0  0  0  0  0  0  0  0  0  0  0  0
  -50.8260   -2.8220  -19.5230 C   0  0  0  0  0  0  0  0  0  0  0  0
  -51.4260   -3.1360  -24.7940 N   0  0  0  0  0  0  0  0  0  0  0  0
  -52.2870   -3.6810  -24.7480 H   0  0  0  0  0  0  0  0  0  0  0  0
  -50.1760   -3.7960  -24.9650 C   0  0  0  0  0  0  0  0  0  0  0  0
  -49.3160   -3.4720  -26.0100 C   0  0  0  0  0  0  0  0  0  0  0  0
  -48.0930   -4.1230  -26.1710 C   0  0  0  0  0  0  0  0  0  0  0  0
  -47.0380   -3.6820  -27.5050 Cl  0  0  0  0  0  0  0  0  0  0  0  0
  -47.7580   -5.1020  -25.2600 C   0  0  0  0  0  0  0  0  0  0  0  0
  -46.0780   -6.0050  -25.4690 Br  0  0  0  0  0  0  0  0  0  0  0  0
  -48.6240   -5.4210  -24.2160 C   0  0  0  0  0  0  0  0  0  0  0  0
  -49.8430   -4.7740  -24.0550 C   0  0  0  0  0  0  0  0  0  0  0  0
  -50.6460   -5.1180  -23.0300 F   0  0  0  0  0  0  0  0  0  0  0  0
  -50.8369   -2.4809  -22.2369 H   0  0  0  0  0  0  0  0  0  0  0  0
  -52.6564   -2.4014  -22.4201 H   0  0  0  0  0  0  0  0  0  0  0  0
  -51.8553    1.8826  -22.0656 H   0  0  0  0  0  0  0  0  0  0  0  0
  -52.2463    0.7303  -26.3377 H   0  0  0  0  0  0  0  0  0  0  0  0
  -50.4546    0.7234  -26.0610 H   0  0  0  0  0  0  0  0  0  0  0  0
  -50.7296    2.0008  -18.9925 H   0  0  0  0  0  0  0  0  0  0  0  0
  -50.1809    0.3336  -19.1739 H   0  0  0  0  0  0  0  0  0  0  0  0
  -52.3538    0.3959  -17.3727 H   0  0  0  0  0  0  0  0  0  0  0  0
  -52.0920    2.3199  -16.3311 H   0  0  0  0  0  0  0  0  0  0  0  0
  -50.6075    2.6561  -17.2246 H   0  0  0  0  0  0  0  0  0  0  0  0
  -52.1264    1.4552  -14.4425 H   0  0  0  0  0  0  0  0  0  0  0  0
  -50.6675    1.5830  -13.4394 H   0  0  0  0  0  0  0  0  0  0  0  0
  -48.3500    1.7513  -15.8743 H   0  0  0  0  0  0  0  0  0  0  0  0
  -51.3515   -0.6094  -13.2376 H   0  0  0  0  0  0  0  0  0  0  0  0
  -51.6444   -0.7309  -14.9877 H   0  0  0  0  0  0  0  0  0  0  0  0
  -48.8958    0.7750  -13.5423 H   0  0  0  0  0  0  0  0  0  0  0  0
  -47.8177   -0.2152  -14.4552 H   0  0  0  0  0  0  0  0  0  0  0  0
  -48.9432    0.5235  -17.7201 H   0  0  0  0  0  0  0  0  0  0  0  0
  -48.6347   -0.8041  -16.6114 H   0  0  0  0  0  0  0  0  0  0  0  0
  -51.0370   -3.3721  -18.6298 H   0  0  0  0  0  0  0  0  0  0  0  0
  -50.0064   -2.1570  -19.3471 H   0  0  0  0  0  0  0  0  0  0  0  0
  -50.5712   -3.5020  -20.3088 H   0  0  0  0  0  0  0  0  0  0  0  0
  -49.5886   -2.7353  -26.6793 H   0  0  0  0  0  0  0  0  0  0  0  0
  -48.3530   -6.1568  -23.5451 H   0  0  0  0  0  0  0  0  0  0  0  0
  1  6  2  0  0  0  0
  1 25  1  0  0  0  0
  2  1  1  0  0  0  0
  2 38  1  0  0  0  0
  2 39  1  0  0  0  0
  3  4  1  0  0  0  0
  3  2  1  0  0  0  0
  4  5  2  0  0  0  0
  5  6  1  0  0  0  0
  5 40  1  0  0  0  0
  6 13  1  0  0  0  0
  7  8  1  0  0  0  0
  7  4  1  0  0  0  0
  9  7  1  0  0  0  0
  9 41  1  0  0  0  0
  9 42  1  0  0  0  0
 10  9  1  0  0  0  0
 10 12  1  0  0  0  0
 11 10  1  0  0  0  0
 12  3  2  0  0  0  0
 13 14  1  0  0  0  0
 14 15  1  0  0  0  0
 14 43  1  0  0  0  0
 14 44  1  0  0  0  0
 15 24  1  0  0  0  0
 15 16  1  0  0  0  0
 15 45  1  1  0  0  0
 16 17  1  0  0  0  0
 16 46  1  0  0  0  0
 16 47  1  0  0  0  0
 17 19  1  6  0  0  0
 17 18  1  0  0  0  0
 18 20  1  0  0  0  0
 18 48  1  0  0  0  0
 18 49  1  0  0  0  0
 19 22  1  0  0  0  0
 19 50  1  6  0  0  0
 20 51  1  0  0  0  0
 20 52  1  0  0  0  0
 21 20  1  0  0  0  0
 22 21  1  0  0  0  0
 22 53  1  0  0  0  0
 22 54  1  0  0  0  0
 23 19  1  0  0  0  0
 23 55  1  0  0  0  0
 23 56  1  0  0  0  0
 24 23  1  0  0  0  0
 25 26  1  0  0  0  0
 26 57  1  0  0  0  0
 26 58  1  0  0  0  0
 26 59  1  0  0  0  0
 27 28  1  0  0  0  0
 27 12  1  0  0  0  0
 29 27  1  0  0  0  0
 29 36  2  0  0  0  0
 30 29  1  0  0  0  0
 30 60  1  0  0  0  0
 31 30  2  0  0  0  0
 31 33  1  0  0  0  0
 32 31  1  0  0  0  0
 33 35  2  0  0  0  0
 34 33  1  0  0  0  0
 35 36  1  0  0  0  0
 35 61  1  0  0  0  0
 36 37  1  0  0  0  0
M  END
>  <REMARK>
 VINA RESULT:      -7.4      3.363      5.433
  6 active torsions:
  status: ('A' for Active; 'I' for Inactive)
    1  A    between atoms: O_2  and  C_3 
    2  A    between atoms: C_8  and  O_9 
    3  A    between atoms: O_9  and  C_10 
    4  A    between atoms: C_10  and  C_11 
    5  A    between atoms: C_26  and  N_27 
    6  A    between atoms: N_27  and  C_29 

>  <TORSDO>
F 6

$$$$
resistance_project/docking/8faf60323ce63d5a/P00533_T790M/docked/molecule_0010_out.pdbqt
 OpenBabel09142609553D

 61 65  0  0  1  0  0  0  0  0999 V2000
  -51.5880    1.3210  -19.6120 C   0  0  0  0  0  0  0  0  0  0  0  0
  -51.8240    1.6900  -18.3000 C   0  0  0  0  0  0  0  0  0  0  0  0
  -51.2710    0.9570  -17.2570 C   0  0  0  0  0  0  0  0  0  0  0  0
  -50.4760   -0.1500  -17.4690 C   0  0  0  0  0  0  0  0  0  0  0  0
  -50.2490   -0.5080  -18.7890 C   0  0  0  0  0  0  0  0  0  0  0  0
  -50.7940    0.2160  -19.8400 C   0  0  0  0  0  0  0  0  0  0  0  0
  -49.9570   -0.8370  -16.4350 N   0  0  0  0  0  0  0  0  0  0  0  0
  -49.3730   -1.6520  -16.6230 H   0  0  0  0  0  0  0  0  0  0  0  0
  -50.1880   -0.4750  -15.1520 C   0  0  0  0  0  0  0  0  0  0  0  0
  -50.9620    0.6020  -14.9270 N   0  0  0  0  0  0  0  0  0  0  0  0
  -51.1420    0.8830  -13.9640 H   0  0  0  0  0  0  0  0  0  0  0  0
  -51.5050    1.3240  -15.9270 C   0  0  2  0  0  0  0  0  0  0  0  0
  -50.5520   -0.1630  -21.1730 O   0  0  0  0  0  0  0  0  0  0  0  0
  -51.3740   -1.0450  -21.8690 C   0  0  0  0  0  0  0  0  0  0  0  0
  -50.6090   -1.8160  -22.9240 C   0  0  2  0  0  0  0  0  0  0  0  0
  -51.5670   -2.6520  -23.7410 C   0  0  0  0  0  0  0  0  0  0  0  0
  -51.1230   -4.0060  -23.8650 N   0  0  1  0  0  0  0  0  0  0  0  0
  -50.1540   -4.2300  -24.9090 C   0  0  0  0  0  0  0  0  0  0  0  0
  -50.7900   -4.6540  -22.6300 C   0  0  1  0  0  0  0  0  0  0  0  0
  -48.7300   -4.2200  -24.4110 C   0  0  0  0  0  0  0  0  0  0  0  0
  -48.5500   -4.9190  -23.2340 O   0  0  0  0  0  0  0  0  0  0  0  0
  -49.6730   -5.6620  -22.9210 C   0  0  0  0  0  0  0  0  0  0  0  0
  -50.1990   -3.6510  -21.6660 C   0  0  0  0  0  0  0  0  0  0  0  0
  -49.6000   -2.5960  -22.3530 O   0  0  0  0  0  0  0  0  0  0  0  0
  -52.1380    2.0500  -20.6560 O   0  0  0  0  0  0  0  0  0  0  0  0
  -53.5120    1.8200  -20.9540 C   0  0  0  0  0  0  0  0  0  0  0  0
  -52.3250    2.4690  -15.6370 N   0  0  0  0  0  0  0  0  0  0  0  0
  -53.2820    2.5110  -15.9870 H   0  0  0  0  0  0  0  0  0  0  0  0
  -51.8030    3.5450  -14.8630 C   0  0  0  0  0  0  0  0  0  0  0  0
  -50.8110    3.3440  -13.9100 C   0  0  0  0  0  0  0  0  0  0  0  0
  -50.3040    4.4040  -13.1550 C   0  0  0  0  0  0  0  0  0  0  0  0
  -49.0510    4.1040  -11.9620 Cl  0  0  0  0  0  0  0  0  0  0  0  0
  -50.8190    5.6620  -13.3840 C   0  0  0  0  0  0  0  0  0  0  0  0
  -50.1310    7.1280  -12.3550 Br  0  0  0  0  0  0  0  0  0  0  0  0
  -51.8120    5.8560  -14.3410 C   0  0  0  0  0  0  0  0  0  0  0  0
  -52.3180    4.8020  -15.0920 C   0  0  0  0  0  0  0  0  0  0  0  0
  -53.2790    5.0380  -16.0060 F   0  0  0  0  0  0  0  0  0  0  0  0
  -52.4127    2.5124  -18.0950 H   0  0  0  0  0  0  0  0  0  0  0  0
  -49.6616   -1.3313  -18.9946 H   0  0  0  0  0  0  0  0  0  0  0  0
  -49.2374   -0.2831  -14.7000 H   0  0  0  0  0  0  0  0  0  0  0  0
  -50.7430   -1.2922  -14.7407 H   0  0  0  0  0  0  0  0  0  0  0  0
  -51.4832    1.5877  -14.8902 H   0  0  0  0  0  0  0  0  0  0  0  0
  -51.8024   -1.7387  -21.1761 H   0  0  0  0  0  0  0  0  0  0  0  0
  -52.1329   -0.4732  -22.3610 H   0  0  0  0  0  0  0  0  0  0  0  0
  -50.1266   -1.1194  -23.5774 H   0  0  0  0  0  0  0  0  0  0  0  0
  -52.5251   -2.6446  -23.2646 H   0  0  0  0  0  0  0  0  0  0  0  0
  -51.6204   -2.2299  -24.7228 H   0  0  0  0  0  0  0  0  0  0  0  0
  -50.3508   -5.1815  -25.3570 H   0  0  0  0  0  0  0  0  0  0  0  0
  -50.2511   -3.4275  -25.6101 H   0  0  0  0  0  0  0  0  0  0  0  0
  -51.6687   -5.1071  -22.2208 H   0  0  0  0  0  0  0  0  0  0  0  0
  -48.4356   -3.2041  -24.2493 H   0  0  0  0  0  0  0  0  0  0  0  0
  -48.1339   -4.7033  -25.1567 H   0  0  0  0  0  0  0  0  0  0  0  0
  -49.4875   -6.2682  -22.0590 H   0  0  0  0  0  0  0  0  0  0  0  0
  -49.9408   -6.3177  -23.7231 H   0  0  0  0  0  0  0  0  0  0  0  0
  -49.4632   -4.1380  -21.0608 H   0  0  0  0  0  0  0  0  0  0  0  0
  -50.9850   -3.2593  -21.0547 H   0  0  0  0  0  0  0  0  0  0  0  0
  -53.8080    2.4411  -21.7735 H   0  0  0  0  0  0  0  0  0  0  0  0
  -54.1070    2.0539  -20.0960 H   0  0  0  0  0  0  0  0  0  0  0  0
  -53.6529    0.7923  -21.2163 H   0  0  0  0  0  0  0  0  0  0  0  0
  -50.4418    2.3925  -13.7574 H   0  0  0  0  0  0  0  0  0  0  0  0
  -52.1815    6.8070  -14.4964 H   0  0  0  0  0  0  0  0  0  0  0  0
  1  2  2  0  0  0  0
  2  3  1  0  0  0  0
  2 38  1  0  0  0  0
  3 12  1  0  0  0  0
  4  3  2  0  0  0  0
  4  7  1  0  0  0  0
  5  4  1  0  0  0  0
  5 39  1  0  0  0  0
  6  1  1  0  0  0  0
  6  5  2  0  0  0  0
  7  9  1  0  0  0  0
  8  7  1  0  0  0  0
  9 10  1  0  0  0  0
  9 40  1  0  0  0  0
  9 41  1  0  0  0  0
 10 11  1  0  0  0  0
 12 27  1  0  0  0  0
 12 10  1  0  0  0  0
 12 42  1  6  0  0  0
 13  6  1  0  0  0  0
 14 13  1  0  0  0  0
 14 43  1  0  0  0  0
 14 44  1  0  0  0  0
 15 24  1  0  0  0  0
 15 14  1  0  0  0  0
 15 45  1  6  0  0  0
 16 15  1  0  0  0  0
 16 46  1  0  0  0  0
 16 47  1  0  0  0  0
 17 16  1  0  0  0  0
 17 19  1  1  0  0  0
 18 20  1  0  0  0  0
 18 17  1  0  0  0  0
 18 48  1  0  0  0  0
 18 49  1  0  0  0  0
 19 23  1  0  0  0  0
 19 50  1  1  0  0  0
 20 21  1  0  0  0  0
 20 51  1  0  0  0  0
 20 52  1  0  0  0  0
 21 22  1  0  0  0  0
 22 19  1  0  0  0  0
 22 53  1  0  0  0  0
 22 54  1  0  0  0  0
 23 55  1  0  0  0  0
 23 56  1  0  0  0  0
 24 23  1  0  0  0  0
 25  1  1  0  0  0  0
 26 25  1  0  0  0  0
 26 57  1  0  0  0  0
 26 58  1  0  0  0  0
 26 59  1  0  0  0  0
 27 29  1  0  0  0  0
 28 27  1  0  0  0  0
 29 30  1  0  0  0  0
 30 31  2  0  0  0  0
 30 60  1  0  0  0  0
 31 32  1  0  0  0  0
 33 31  1  0  0  0  0
 33 34  1  0  0  0  0
 35 33  2  0  0  0  0
 35 61  1  0  0  0  0
 36 29  2  0  0  0  0
 36 35  1  0  0  0  0
 37 36  1  0  0  0  0
M  END
>  <REMARK>
 VINA RESULT:      -7.1      5.596      9.366
  6 active torsions:
  status: ('A' for Active; 'I' for Inactive)
    1  A    between atoms: O_2  and  C_3 
    2  A    between atoms: C_8  and  O_9 
    3  A    between atoms: O_9  and  C_10 
    4  A    between atoms: C_10  and  C_11 
    5  A    between atoms: C_26  and  N_27 
    6  A    between atoms: N_27  and  C_29 

>  <TORSDO>
F 6

$$$$
resistance_project/docking/8faf60323ce63d5a/P00533_T790M/docked/molecule_0010_out.pdbqt
 OpenBabel09142609553D

 63 67  0  0  1  0  0  0  0  0999 V2000
  -50.7070   -1.1100  -18.8850 C   0  0  0  0  0  0  0  0  0  0  0  0
  -50.4600   -0.6330  -17.6110 C   0  0  0  0  0  0  0  0  0  0  0  0
  -51.0230    0.5640  -17.1900 C   0  0  0  0  0  0  0  0  0  0  0  0
  -51.8390    1.3240  -18.0020 C   0  0  0  0  0  0  0  0  0  0  0  0
  -52.0780    0.8350  -19.2760 C   0  0  0  0  0  0  0  0  0  0  0  0
  -51.5230   -0.3600  -19.7090 C   0  0  0  0  0  0  0  0  0  0  0  0
  -52.3680    2.4820  -17.5620 N   0  0  0  0  0  0  0  0  0  0  0  0
  -52.9680    3.0220  -18.1850 H   0  0  0  0  0  0  0  0  0  0  0  0
  -52.1250    2.9460  -16.3140 C   0  0  0  0  0  0  0  0  0  0  0  0
  -51.3310    2.2180  -15.5110 N   0  0  0  0  0  0  0  0  0  0  0  0
  -51.1420    2.5590  -14.5680 H   0  0  0  0  0  0  0  0  0  0  0  0
  -50.7770    1.0540  -15.9020 C   0  0  1  0  0  0  0  0  0  0  0  0
  -51.7770   -0.8410  -21.0070 O   0  0  0  0  0  0  0  0  0  0  0  0
  -51.0790   -0.3980  -22.1270 C   0  0  0  0  0  0  0  0  0  0  0  0
  -51.0180   -1.4550  -23.2080 C   0  0  2  0  0  0  0  0  0  0  0  0
  -51.6160   -2.7450  -22.6940 C   0  0  0  0  0  0  0  0  0  0  0  0
  -50.7670   -3.8670  -22.9500 N   0  0  1  0  0  0  0  0  0  0  0  0
  -50.8860   -4.4250  -24.2740 C   0  0  0  0  0  0  0  0  0  0  0  0
  -49.4090   -3.7150  -22.5160 C   0  0  1  0  0  0  0  0  0  0  0  0
  -49.8400   -3.9130  -25.2320 C   0  0  0  0  0  0  0  0  0  0  0  0
  -48.5710   -3.8590  -24.6910 O   0  0  0  0  0  0  0  0  0  0  0  0
  -48.5220   -4.5160  -23.4750 C   0  0  0  0  0  0  0  0  0  0  0  0
  -48.9800   -2.2730  -22.6650 C   0  0  0  0  0  0  0  0  0  0  0  0
  -49.7120   -1.6390  -23.6680 O   0  0  0  0  0  0  0  0  0  0  0  0
  -50.1470   -2.3060  -19.3090 O   0  0  0  0  0  0  0  0  0  0  0  0
  -48.7960   -2.5580  -18.9340 C   0  0  0  0  0  0  0  0  0  0  0  0
  -49.9340    0.3080  -15.0060 N   0  0  0  0  0  0  0  0  0  0  0  0
  -48.9290    0.2660  -15.1700 H   0  0  0  0  0  0  0  0  0  0  0  0
  -50.5010   -0.3710  -13.8900 C   0  0  0  0  0  0  0  0  0  0  0  0
  -51.0650   -1.6360  -14.0150 C   0  0  0  0  0  0  0  0  0  0  0  0
  -51.6190   -2.2960  -12.9170 C   0  0  0  0  0  0  0  0  0  0  0  0
  -52.3210   -3.8930  -13.1210 Cl  0  0  0  0  0  0  0  0  0  0  0  0
  -51.5910   -1.6530  -11.6980 C   0  0  0  0  0  0  0  0  0  0  0  0
  -52.3480   -2.5480  -10.1790 Br  0  0  0  0  0  0  0  0  0  0  0  0
  -51.0240   -0.3860  -11.5790 C   0  0  0  0  0  0  0  0  0  0  0  0
  -50.4730    0.2720  -12.6730 C   0  0  0  0  0  0  0  0  0  0  0  0
  -49.9370    1.4970  -12.5090 F   0  0  0  0  0  0  0  0  0  0  0  0
  -49.3994   -0.5210  -17.5248 H   0  0  0  0  0  0  0  0  0  0  0  0
  -50.9348   -1.3584  -16.9839 H   0  0  0  0  0  0  0  0  0  0  0  0
  -53.1387    0.7243  -19.3629 H   0  0  0  0  0  0  0  0  0  0  0  0
  -51.5854    1.5553  -19.8952 H   0  0  0  0  0  0  0  0  0  0  0  0
  -53.0701    3.0440  -15.8220 H   0  0  0  0  0  0  0  0  0  0  0  0
  -51.5837    3.8558  -16.4693 H   0  0  0  0  0  0  0  0  0  0  0  0
  -50.6430    1.6207  -15.0043 H   0  0  0  0  0  0  0  0  0  0  0  0
  -51.5679    0.4695  -22.5186 H   0  0  0  0  0  0  0  0  0  0  0  0
  -50.0771   -0.1731  -21.8260 H   0  0  0  0  0  0  0  0  0  0  0  0
  -51.5950   -1.1240  -24.0461 H   0  0  0  0  0  0  0  0  0  0  0  0
  -52.5571   -2.9063  -23.1769 H   0  0  0  0  0  0  0  0  0  0  0  0
  -51.7357   -2.6554  -21.6345 H   0  0  0  0  0  0  0  0  0  0  0  0
  -50.7915   -5.4885  -24.2043 H   0  0  0  0  0  0  0  0  0  0  0  0
  -51.8400   -4.1299  -24.6583 H   0  0  0  0  0  0  0  0  0  0  0  0
  -49.3253   -4.0369  -21.4990 H   0  0  0  0  0  0  0  0  0  0  0  0
  -49.8167   -4.5598  -26.0841 H   0  0  0  0  0  0  0  0  0  0  0  0
  -50.1139   -2.9107  -25.4877 H   0  0  0  0  0  0  0  0  0  0  0  0
  -47.5163   -4.5466  -23.1109 H   0  0  0  0  0  0  0  0  0  0  0  0
  -48.8615   -5.5266  -23.5656 H   0  0  0  0  0  0  0  0  0  0  0  0
  -49.1394   -1.7622  -21.7384 H   0  0  0  0  0  0  0  0  0  0  0  0
  -47.9437   -2.2495  -22.9302 H   0  0  0  0  0  0  0  0  0  0  0  0
  -48.4892   -3.5068  -19.3221 H   0  0  0  0  0  0  0  0  0  0  0  0
  -48.7178   -2.5670  -17.8669 H   0  0  0  0  0  0  0  0  0  0  0  0
  -48.1663   -1.7896  -19.3313 H   0  0  0  0  0  0  0  0  0  0  0  0
  -51.0741   -2.0962  -14.9386 H   0  0  0  0  0  0  0  0  0  0  0  0
  -51.0127    0.0756  -10.6561 H   0  0  0  0  0  0  0  0  0  0  0  0
  1  2  1  0  0  0  0
  2  3  1  0  0  0  0
  2 38  1  0  0  0  0
  2 39  1  0  0  0  0
  3 12  1  0  0  0  0
  4  7  1  0  0  0  0
  4  3  2  0  0  0  0
  5  4  1  0  0  0  0
  5 40  1  0  0  0  0
  5 41  1  0  0  0  0
  6  5  1  0  0  0  0
  6  1  2  0  0  0  0
  7  9  1  0  0  0  0
  8  7  1  0  0  0  0
  9 10  1  0  0  0  0
  9 42  1  0  0  0  0
  9 43  1  0  0  0  0
 10 11  1  0  0  0  0
 12 10  1  0  0  0  0
 12 27  1  0  0  0  0
 12 44  1  6  0  0  0
 13  6  1  0  0  0  0
 14 13  1  0  0  0  0
 14 45  1  0  0  0  0
 14 46  1  0  0  0  0
 15 16  1  0  0  0  0
 15 14  1  0  0  0  0
 15 47  1  6  0  0  0
 16 48  1  0  0  0  0
 16 49  1  0  0  0  0
 17 16  1  0  0  0  0
 17 19  1  6  0  0  0
 18 17  1  0  0  0  0
 18 50  1  0  0  0  0
 18 51  1  0  0  0  0
 19 52  1  1  0  0  0
 20 21  1  0  0  0  0
 20 18  1  0  0  0  0
 20 53  1  0  0  0  0
 20 54  1  0  0  0  0
 21 22  1  0  0  0  0
 22 19  1  0  0  0  0
 22 55  1  0  0  0  0
 22 56  1  0  0  0  0
 23 19  1  0  0  0  0
 23 57  1  0  0  0  0
 23 58  1  0  0  0  0
 24 15  1  0  0  0  0
 24 23  1  0  0  0  0
 25 26  1  0  0  0  0
 25  1  1  0  0  0  0
 26 59  1  0  0  0  0
 26 60  1  0  0  0  0
 26 61  1  0  0  0  0
 27 29  1  0  0  0  0
 28 27  1  0  0  0  0
 29 36  1  0  0  0  0
 30 29  2  0  0  0  0
 30 31  1  0  0  0  0
 30 62  1  0  0  0  0
 31 33  2  0  0  0  0
 32 31  1  0  0  0  0
 33 35  1  0  0  0  0
 33 34  1  0  0  0  0
 35 63  1  0  0  0  0
 36 37  1  0  0  0  0
 36 35  2  0  0  0  0
M  END
>  <REMARK>
 VINA RESULT:      -7.0      4.487      8.830
  6 active torsions:
  status: ('A' for Active; 'I' for Inactive)
    1  A    between atoms: O_2  and  C_3 
    2  A    between atoms: C_8  and  O_9 
    3  A    between atoms: O_9  and  C_10 
    4  A    between atoms: C_10  and  C_11 
    5  A    between atoms: C_26  and  N_27 
    6  A    between atoms: N_27  and  C_29 

>  <TORSDO>
F 6

$$$$
resistance_project/docking/8faf60323ce63d5a/P00533_T790M/docked/molecule_0010_out.pdbqt
 OpenBabel09142609553D

 63 67  0  0  1  0  0  0  0  0999 V2000
  -49.6370   -1.1510  -18.9690 C   0  0  0  0  0  0  0  0  0  0  0  0
  -50.5420   -0.3530  -18.2950 C   0  0  0  0  0  0  0  0  0  0  0  0
  -51.2910    0.5920  -18.9840 C   0  0  0  0  0  0  0  0  0  0  0  0
  -51.1760    0.7790  -20.3460 C   0  0  0  0  0  0  0  0  0  0  0  0
  -50.2640   -0.0280  -21.0090 C   0  0  0  0  0  0  0  0  0  0  0  0
  -49.5100   -0.9760  -20.3320 C   0  0  0  0  0  0  0  0  0  0  0  0
  -51.9180    1.7040  -20.9830 N   0  0  0  0  0  0  0  0  0  0  0  0
  -51.8100    1.8190  -21.9900 H   0  0  0  0  0  0  0  0  0  0  0  0
  -52.8030    2.4850  -20.3210 C   0  0  0  0  0  0  0  0  0  0  0  0
  -52.9280    2.3160  -18.9930 N   0  0  0  0  0  0  0  0  0  0  0  0
  -53.5930    2.8990  -18.4850 H   0  0  0  0  0  0  0  0  0  0  0  0
  -52.2090    1.4040  -18.3090 C   0  0  2  0  0  0  0  0  0  0  0  0
  -48.5900   -1.7860  -21.0230 O   0  0  0  0  0  0  0  0  0  0  0  0
  -48.9800   -2.8280  -21.8600 C   0  0  0  0  0  0  0  0  0  0  0  0
  -48.2180   -4.1020  -21.5670 C   0  0  2  0  0  0  0  0  0  0  0  0
  -46.9580   -3.7770  -20.7970 C   0  0  0  0  0  0  0  0  0  0  0  0
  -45.8070   -4.4080  -21.3650 N   0  0  1  0  0  0  0  0  0  0  0  0
  -45.6100   -5.7790  -20.9650 C   0  0  0  0  0  0  0  0  0  0  0  0
  -45.6270   -4.1930  -22.7710 C   0  0  1  0  0  0  0  0  0  0  0  0
  -46.1600   -6.7730  -21.9570 C   0  0  0  0  0  0  0  0  0  0  0  0
  -45.8740   -6.4610  -23.2710 O   0  0  0  0  0  0  0  0  0  0  0  0
  -44.9450   -5.4390  -23.3480 C   0  0  0  0  0  0  0  0  0  0  0  0
  -46.9720   -4.1060  -23.4550 C   0  0  0  0  0  0  0  0  0  0  0  0
  -47.9390   -4.8100  -22.7390 O   0  0  0  0  0  0  0  0  0  0  0  0
  -48.8870   -2.0950  -18.2840 O   0  0  0  0  0  0  0  0  0  0  0  0
  -49.5960   -3.0080  -17.4510 C   0  0  0  0  0  0  0  0  0  0  0  0
  -52.3780    1.2590  -16.8880 N   0  0  0  0  0  0  0  0  0  0  0  0
  -52.8290    0.4250  -16.5120 H   0  0  0  0  0  0  0  0  0  0  0  0
  -51.9190    2.2780  -16.0050 C   0  0  0  0  0  0  0  0  0  0  0  0
  -52.3880    3.5840  -16.0900 C   0  0  0  0  0  0  0  0  0  0  0  0
  -51.9320    4.5770  -15.2210 C   0  0  0  0  0  0  0  0  0  0  0  0
  -52.5530    6.2140  -15.3650 Cl  0  0  0  0  0  0  0  0  0  0  0  0
  -50.9990    4.2230  -14.2710 C   0  0  0  0  0  0  0  0  0  0  0  0
  -50.3640    5.5770  -13.0690 Br  0  0  0  0  0  0  0  0  0  0  0  0
  -50.5330    2.9120  -14.1910 C   0  0  0  0  0  0  0  0  0  0  0  0
  -50.9860    1.9230  -15.0560 C   0  0  0  0  0  0  0  0  0  0  0  0
  -50.5060    0.6700  -14.9400 F   0  0  0  0  0  0  0  0  0  0  0  0
  -51.2391   -1.0116  -17.8205 H   0  0  0  0  0  0  0  0  0  0  0  0
  -49.9169    0.2446  -17.6649 H   0  0  0  0  0  0  0  0  0  0  0  0
  -49.5664    0.6306  -21.4829 H   0  0  0  0  0  0  0  0  0  0  0  0
  -50.8964   -0.6331  -21.6245 H   0  0  0  0  0  0  0  0  0  0  0  0
  -53.7656    2.3125  -20.7551 H   0  0  0  0  0  0  0  0  0  0  0  0
  -52.4145    3.4763  -20.4275 H   0  0  0  0  0  0  0  0  0  0  0  0
  -52.9829    2.0803  -18.0113 H   0  0  0  0  0  0  0  0  0  0  0  0
  -50.0252   -3.0104  -21.7215 H   0  0  0  0  0  0  0  0  0  0  0  0
  -48.7692   -2.5399  -22.8687 H   0  0  0  0  0  0  0  0  0  0  0  0
  -48.8300   -4.7381  -20.9623 H   0  0  0  0  0  0  0  0  0  0  0  0
  -47.0734   -4.1126  -19.7876 H   0  0  0  0  0  0  0  0  0  0  0  0
  -46.8090   -2.7182  -20.8374 H   0  0  0  0  0  0  0  0  0  0  0  0
  -44.5600   -5.9536  -20.8554 H   0  0  0  0  0  0  0  0  0  0  0  0
  -46.1396   -5.9210  -20.0461 H   0  0  0  0  0  0  0  0  0  0  0  0
  -45.0620   -3.2968  -22.9213 H   0  0  0  0  0  0  0  0  0  0  0  0
  -45.7427   -7.7339  -21.7393 H   0  0  0  0  0  0  0  0  0  0  0  0
  -47.2252   -6.7586  -21.8566 H   0  0  0  0  0  0  0  0  0  0  0  0
  -44.6642   -5.2695  -24.3665 H   0  0  0  0  0  0  0  0  0  0  0  0
  -44.0547   -5.6811  -22.8061 H   0  0  0  0  0  0  0  0  0  0  0  0
  -46.8928   -4.5205  -24.4382 H   0  0  0  0  0  0  0  0  0  0  0  0
  -47.2644   -3.0780  -23.5061 H   0  0  0  0  0  0  0  0  0  0  0  0
  -48.9033   -3.6770  -16.9847 H   0  0  0  0  0  0  0  0  0  0  0  0
  -50.2885   -3.5680  -18.0441 H   0  0  0  0  0  0  0  0  0  0  0  0
  -50.1286   -2.4646  -16.6987 H   0  0  0  0  0  0  0  0  0  0  0  0
  -53.0873    3.8243  -16.8099 H   0  0  0  0  0  0  0  0  0  0  0  0
  -49.8341    2.6695  -13.4715 H   0  0  0  0  0  0  0  0  0  0  0  0
  1  2  1  0  0  0  0
  1 25  1  0  0  0  0
  2 38  1  0  0  0  0
  2 39  1  0  0  0  0
  3 12  1  0  0  0  0
  3  2  1  0  0  0  0
  4  3  2  0  0  0  0
  5  4  1  0  0  0  0
  5  6  1  0  0  0  0
  5 40  1  0  0  0  0
  5 41  1  0  0  0  0
  6  1  2  0  0  0  0
  7  4  1  0  0  0  0
  7  9  1  0  0  0  0
  8  7  1  0  0  0  0
  9 10  1  0  0  0  0
  9 42  1  0  0  0  0
  9 43  1  0  0  0  0
 10 11  1  0  0  0  0
 10 12  1  0  0  0  0
 12 27  1  0  0  0  0
 12 44  1  6  0  0  0
 13  6  1  0  0  0  0
 14 15  1  0  0  0  0
 14 13  1  0  0  0  0
 14 45  1  0  0  0  0
 14 46  1  0  0  0  0
 15 16  1  0  0  0  0
 15 47  1  1  0  0  0
 16 48  1  0  0  0  0
 16 49  1  0  0  0  0
 17 19  1  6  0  0  0
 17 18  1  0  0  0  0
 17 16  1  0  0  0  0
 18 50  1  0  0  0  0
 18 51  1  0  0  0  0
 19 52  1  6  0  0  0
 20 18  1  0  0  0  0
 20 53  1  0  0  0  0
 20 54  1  0  0  0  0
 21 20  1  0  0  0  0
 22 21  1  0  0  0  0
 22 19  1  0  0  0  0
 22 55  1  0  0  0  0
 22 56  1  0  0  0  0
 23 19  1  0  0  0  0
 23 24  1  0  0  0  0
 23 57  1  0  0  0  0
 23 58  1  0  0  0  0
 24 15  1  0  0  0  0
 25 26  1  0  0  0  0
 26 59  1  0  0  0  0
 26 60  1  0  0  0  0
 26 61  1  0  0  0  0
 27 28  1  0  0  0  0
 27 29  1  0  0  0  0
 29 36  1  0  0  0  0
 30 29  2  0  0  0  0
 30 31  1  0  0  0  0
 30 62  1  0  0  0  0
 31 33  2  0  0  0  0
 32 31  1  0  0  0  0
 33 35  1  0  0  0  0
 33 34  1  0  0  0  0
 35 63  1  0  0  0  0
 36 37  1  0  0  0  0
 36 35  2  0  0  0  0
M  END
>  <REMARK>
 VINA RESULT:      -6.9      5.219      8.750
  6 active torsions:
  status: ('A' for Active; 'I' for Inactive)
    1  A    between atoms: O_2  and  C_3 
    2  A    between atoms: C_8  and  O_9 
    3  A    between atoms: O_9  and  C_10 
    4  A    between atoms: C_10  and  C_11 
    5  A    between atoms: C_26  and  N_27 
    6  A    between atoms: N_27  and  C_29 

>  <TORSDO>
F 6

$$$$
resistance_project/docking/8faf60323ce63d5a/P00533_T790M/docked/molecule_0010_out.pdbqt
 OpenBabel09142609553D

 61 65  0  0  1  0  0  0  0  0999 V2000
  -50.1600   -1.3100  -17.8330 C   0  0  0  0  0  0  0  0  0  0  0  0
  -50.6440   -1.5530  -19.1050 C   0  0  0  0  0  0  0  0  0  0  0  0
  -51.2410   -0.5330  -19.8340 C   0  0  0  0  0  0  0  0  0  0  0  0
  -51.3800    0.7470  -19.3400 C   0  0  0  0  0  0  0  0  0  0  0  0
  -50.8910    0.9770  -18.0640 C   0  0  0  0  0  0  0  0  0  0  0  0
  -50.2910   -0.0330  -17.3250 C   0  0  0  0  0  0  0  0  0  0  0  0
  -51.9650    1.7130  -20.0740 N   0  0  0  0  0  0  0  0  0  0  0  0
  -52.0530    2.6500  -19.6810 H   0  0  0  0  0  0  0  0  0  0  0  0
  -52.4370    1.4720  -21.3190 C   0  0  0  0  0  0  0  0  0  0  0  0
  -52.3100    0.2290  -21.8150 N   0  0  0  0  0  0  0  0  0  0  0  0
  -52.6630    0.0380  -22.7530 H   0  0  0  0  0  0  0  0  0  0  0  0
  -51.7340   -0.7720  -21.1220 C   0  0  0  0  0  0  0  0  0  0  0  0
  -49.8000    0.2200  -16.0300 O   0  0  0  0  0  0  0  0  0  0  0  0
  -50.6210    0.5990  -14.9720 C   0  0  0  0  0  0  0  0  0  0  0  0
  -51.2430   -0.5970  -14.2850 C   0  0  2  0  0  0  0  0  0  0  0  0
  -51.9940   -0.1450  -13.0540 C   0  0  0  0  0  0  0  0  0  0  0  0
  -51.6560   -0.9270  -11.9040 N   0  0  1  0  0  0  0  0  0  0  0  0
  -52.3690   -2.1750  -11.7910 C   0  0  0  0  0  0  0  0  0  0  0  0
  -50.2520   -1.0480  -11.6420 C   0  0  1  0  0  0  0  0  0  0  0  0
  -51.5990   -3.3520  -12.3330 C   0  0  0  0  0  0  0  0  0  0  0  0
  -50.2680   -3.3600  -11.9650 O   0  0  0  0  0  0  0  0  0  0  0  0
  -50.0170   -2.4140  -10.9890 C   0  0  0  0  0  0  0  0  0  0  0  0
  -49.4850   -1.0760  -12.9440 C   0  0  0  0  0  0  0  0  0  0  0  0
  -50.2830   -1.5650  -13.9780 O   0  0  0  0  0  0  0  0  0  0  0  0
  -49.5630   -2.3260  -17.1020 O   0  0  0  0  0  0  0  0  0  0  0  0
  -49.2100   -3.5120  -17.8080 C   0  0  0  0  0  0  0  0  0  0  0  0
  -51.6190   -2.0860  -21.6960 N   0  0  0  0  0  0  0  0  0  0  0  0
  -52.2120   -2.8430  -21.3560 H   0  0  0  0  0  0  0  0  0  0  0  0
  -50.6800   -2.3320  -22.7380 C   0  0  0  0  0  0  0  0  0  0  0  0
  -49.3140   -2.4010  -22.4880 C   0  0  0  0  0  0  0  0  0  0  0  0
  -48.4000   -2.6420  -23.5150 C   0  0  0  0  0  0  0  0  0  0  0  0
  -46.6820   -2.7210  -23.1530 Cl  0  0  0  0  0  0  0  0  0  0  0  0
  -48.8930   -2.8110  -24.7910 C   0  0  0  0  0  0  0  0  0  0  0  0
  -47.6480   -3.1450  -26.2120 Br  0  0  0  0  0  0  0  0  0  0  0  0
  -50.2630   -2.7420  -25.0340 C   0  0  0  0  0  0  0  0  0  0  0  0
  -51.1740   -2.5010  -24.0130 C   0  0  0  0  0  0  0  0  0  0  0  0
  -52.4890   -2.4410  -24.2970 F   0  0  0  0  0  0  0  0  0  0  0  0
  -49.8173   -1.9036  -19.6868 H   0  0  0  0  0  0  0  0  0  0  0  0
  -51.4521   -2.2326  -18.9316 H   0  0  0  0  0  0  0  0  0  0  0  0
  -50.9748    1.9204  -17.6541 H   0  0  0  0  0  0  0  0  0  0  0  0
  -53.4809    1.7069  -21.3139 H   0  0  0  0  0  0  0  0  0  0  0  0
  -51.8264    2.0765  -21.9566 H   0  0  0  0  0  0  0  0  0  0  0  0
  -51.4016    1.2271  -15.3475 H   0  0  0  0  0  0  0  0  0  0  0  0
  -50.0200    1.1182  -14.2550 H   0  0  0  0  0  0  0  0  0  0  0  0
  -51.9384   -1.0561  -14.9562 H   0  0  0  0  0  0  0  0  0  0  0  0
  -53.0443   -0.2356  -13.2371 H   0  0  0  0  0  0  0  0  0  0  0  0
  -51.7227    0.8707  -12.8550 H   0  0  0  0  0  0  0  0  0  0  0  0
  -52.5795   -2.3536  -10.7572 H   0  0  0  0  0  0  0  0  0  0  0  0
  -53.2616   -2.0843  -12.3740 H   0  0  0  0  0  0  0  0  0  0  0  0
  -49.9361   -0.2296  -11.0294 H   0  0  0  0  0  0  0  0  0  0  0  0
  -52.0551   -4.2498  -11.9714 H   0  0  0  0  0  0  0  0  0  0  0  0
  -51.6286   -3.2811  -13.4002 H   0  0  0  0  0  0  0  0  0  0  0  0
  -49.0057   -2.4926  -10.6485 H   0  0  0  0  0  0  0  0  0  0  0  0
  -50.6533   -2.5534  -10.1401 H   0  0  0  0  0  0  0  0  0  0  0  0
  -49.1673   -0.0832  -13.1855 H   0  0  0  0  0  0  0  0  0  0  0  0
  -48.6384   -1.7203  -12.8298 H   0  0  0  0  0  0  0  0  0  0  0  0
  -48.7617   -4.2095  -17.1317 H   0  0  0  0  0  0  0  0  0  0  0  0
  -48.5147   -3.2711  -18.5848 H   0  0  0  0  0  0  0  0  0  0  0  0
  -50.0885   -3.9461  -18.2377 H   0  0  0  0  0  0  0  0  0  0  0  0
  -48.9691   -2.2715  -21.5240 H   0  0  0  0  0  0  0  0  0  0  0  0
  -50.6101   -2.8732  -25.9970 H   0  0  0  0  0  0  0  0  0  0  0  0
  1  6  2  0  0  0  0
  1 25  1  0  0  0  0
  2  1  1  0  0  0  0
  2 38  1  0  0  0  0
  2 39  1  0  0  0  0
  3  4  1  0  0  0  0
  3  2  1  0  0  0  0
  4  5  2  0  0  0  0
  5  6  1  0  0  0  0
  5 40  1  0  0  0  0
  6 13  1  0  0  0  0
  7  8  1  0  0  0  0
  7  4  1  0  0  0  0
  9  7  1  0  0  0  0
  9 41  1  0  0  0  0
  9 42  1  0  0  0  0
 10  9  1  0  0  0  0
 10 12  1  0  0  0  0
 11 10  1  0  0  0  0
 12  3  2  0  0  0  0
 13 14  1  0  0  0  0
 14 15  1  0  0  0  0
 14 43  1  0  0  0  0
 14 44  1  0  0  0  0
 15 24  1  0  0  0  0
 15 16  1  0  0  0  0
 15 45  1  6  0  0  0
 16 17  1  0  0  0  0
 16 46  1  0  0  0  0
 16 47  1  0  0  0  0
 17 18  1  0  0  0  0
 17 19  1  6  0  0  0
 18 48  1  0  0  0  0
 18 49  1  0  0  0  0
 19 22  1  0  0  0  0
 19 50  1  1  0  0  0
 20 21  1  0  0  0  0
 20 18  1  0  0  0  0
 20 51  1  0  0  0  0
 20 52  1  0  0  0  0
 21 22  1  0  0  0  0
 22 53  1  0  0  0  0
 22 54  1  0  0  0  0
 23 19  1  0  0  0  0
 23 55  1  0  0  0  0
 23 56  1  0  0  0  0
 24 23  1  0  0  0  0
 26 25  1  0  0  0  0
 26 57  1  0  0  0  0
 26 58  1  0  0  0  0
 26 59  1  0  0  0  0
 27 28  1  0  0  0  0
 27 12  1  0  0  0  0
 29 30  1  0  0  0  0
 29 27  1  0  0  0  0
 30 60  1  0  0  0  0
 31 32  1  0  0  0  0
 31 30  2  0  0  0  0
 33 31  1  0  0  0  0
 34 33  1  0  0  0  0
 35 33  2  0  0  0  0
 35 36  1  0  0  0  0
 35 61  1  0  0  0  0
 36 29  2  0  0  0  0
 37 36  1  0  0  0  0
M  END
>  <REMARK>
 VINA RESULT:      -6.9      2.058      2.518
  6 active torsions:
  status: ('A' for Active; 'I' for Inactive)
    1  A    between atoms: O_2  and  C_3 
    2  A    between atoms: C_8  and  O_9 
    3  A    between atoms: O_9  and  C_10 
    4  A    between atoms: C_10  and  C_11 
    5  A    between atoms: C_26  and  N_27 
    6  A    between atoms: N_27  and  C_29 

>  <TORSDO>
F 6

$$$$
