resistance_project/docking/8faf60323ce63d5a/P00533_T790M/docked/molecule_0012_out.pdbqt
 OpenBabel09142609553D

 56 59  0  0  1  0  0  0  0  0999 V2000
  -49.8290    0.1870  -18.5880 C   0  0  0  0  0  0  0  0  0  0  0  0
  -50.6370    0.8300  -17.6570 C   0  0  1  0  0  0  0  0  0  0  0  0
  -51.8350    1.3880  -18.0480 C   0  0  0  0  0  0  0  0  0  0  0  0
  -52.2170    1.2950  -19.3870 C   0  0  0  0  0  0  0  0  0  0  0  0
  -53.3750    1.8220  -19.8230 N   0  0  0  0  0  0  0  0  0  0  0  0
  -53.9880    2.3000  -19.1600 H   0  0  0  0  0  0  0  0  0  0  0  0
  -53.7450    1.7330  -21.1130 C   0  0  0  0  0  0  0  0  0  0  0  0
  -52.9650    1.1120  -22.0150 N   0  0  0  0  0  0  0  0  0  0  0  0
  -53.2700    1.0610  -22.9870 H   0  0  0  0  0  0  0  0  0  0  0  0
  -51.7990    0.5620  -21.6640 C   0  0  0  0  0  0  0  0  0  0  0  0
  -51.4310    0.6610  -20.3290 C   0  0  0  0  0  0  0  0  0  0  0  0
  -50.2430    0.1170  -19.9020 C   0  0  0  0  0  0  0  0  0  0  0  0
  -50.9220   -0.1040  -22.5320 N   0  0  0  0  0  0  0  0  0  0  0  0
  -49.9840   -0.3530  -22.2160 H   0  0  0  0  0  0  0  0  0  0  0  0
  -51.3320   -0.4280  -23.8330 C   0  0  0  0  0  0  0  0  0  0  0  0
  -51.3100    0.4860  -24.8860 C   0  0  0  0  0  0  0  0  0  0  0  0
  -50.8710    1.7500  -24.6490 F   0  0  0  0  0  0  0  0  0  0  0  0
  -51.7360    0.0870  -26.1560 C   0  0  0  0  0  0  0  0  0  0  0  0
  -52.1860   -1.2160  -26.3850 C   0  0  0  0  0  0  0  0  0  0  0  0
  -52.7690   -1.7490  -28.1400 Br  0  0  0  0  0  0  0  0  0  0  0  0
  -52.2070   -2.1280  -25.3290 C   0  0  0  0  0  0  0  0  0  0  0  0
  -51.7820   -1.7320  -24.0610 C   0  0  0  0  0  0  0  0  0  0  0  0
  -51.8010   -2.6230  -23.0200 F   0  0  0  0  0  0  0  0  0  0  0  0
  -48.6270   -0.3810  -18.2320 O   0  0  0  0  0  0  0  0  0  0  0  0
  -48.5710   -1.7850  -18.0710 C   0  0  0  0  0  0  0  0  0  0  0  0
  -50.1620    0.8640  -16.3550 O   0  0  0  0  0  0  0  0  0  0  0  0
  -50.7550    0.0900  -15.3540 C   0  0  0  0  0  0  0  0  0  0  0  0
  -51.1630    0.9310  -14.1510 C   0  0  1  0  0  0  0  0  0  0  0  0
  -51.9570    0.0280  -13.2290 C   0  0  0  0  0  0  0  0  0  0  0  0
  -51.3490   -1.2860  -13.3130 N   0  0  0  0  0  0  0  0  0  0  0  0
  -51.8310   -2.1680  -12.2690 C   0  0  0  0  0  0  0  0  0  0  0  0
  -49.9190   -1.1060  -13.2690 C   0  0  0  0  0  0  0  0  0  0  0  0
  -49.5130    0.2220  -12.7100 C   0  0  0  0  0  0  0  0  0  0  0  0
  -49.9880    1.2930  -13.4620 O   0  0  0  0  0  0  0  0  0  0  0  0
  -51.5301    1.3717  -17.4250 H   0  0  0  0  0  0  0  0  0  0  0  0
  -52.4395    1.8666  -17.3620 H   0  0  0  0  0  0  0  0  0  0  0  0
  -54.6873    1.2261  -21.1251 H   0  0  0  0  0  0  0  0  0  0  0  0
  -53.7153    2.7521  -21.4376 H   0  0  0  0  0  0  0  0  0  0  0  0
  -49.6392   -0.3609  -20.5891 H   0  0  0  0  0  0  0  0  0  0  0  0
  -51.7180    0.7637  -26.9350 H   0  0  0  0  0  0  0  0  0  0  0  0
  -52.5363   -3.0934  -25.4859 H   0  0  0  0  0  0  0  0  0  0  0  0
  -47.5779   -2.0731  -17.7959 H   0  0  0  0  0  0  0  0  0  0  0  0
  -48.8382   -2.2605  -18.9915 H   0  0  0  0  0  0  0  0  0  0  0  0
  -49.2545   -2.0836  -17.3038 H   0  0  0  0  0  0  0  0  0  0  0  0
  -50.0570   -0.6553  -15.0341 H   0  0  0  0  0  0  0  0  0  0  0  0
  -51.6381   -0.3570  -15.7604 H   0  0  0  0  0  0  0  0  0  0  0  0
  -51.7219    1.7935  -14.4488 H   0  0  0  0  0  0  0  0  0  0  0  0
  -52.9782   -0.0167  -13.5452 H   0  0  0  0  0  0  0  0  0  0  0  0
  -51.9453    0.3955  -12.2242 H   0  0  0  0  0  0  0  0  0  0  0  0
  -51.3606   -3.1243  -12.3646 H   0  0  0  0  0  0  0  0  0  0  0  0
  -52.8911   -2.2814  -12.3591 H   0  0  0  0  0  0  0  0  0  0  0  0
  -51.5971   -1.7495  -11.3124 H   0  0  0  0  0  0  0  0  0  0  0  0
  -49.5342   -1.1891  -14.2640 H   0  0  0  0  0  0  0  0  0  0  0  0
  -49.5215   -1.8602  -12.6224 H   0  0  0  0  0  0  0  0  0  0  0  0
  -49.8976    0.3059  -11.7150 H   0  0  0  0  0  0  0  0  0  0  0  0
  -48.4440    0.2654  -12.7279 H   0  0  0  0  0  0  0  0  0  0  0  0
  1 24  1  0  0  0  0
  1  2  1  0  0  0  0
  2 26  1  0  0  0  0
  2 35  1  6  0  0  0
  3  2  1  0  0  0  0
  3 36  1  0  0  0  0
  4  3  2  0  0  0  0
  5  4  1  0  0  0  0
  5  6  1  0  0  0  0
  7  5  1  0  0  0  0
  7 37  1  0  0  0  0
  7 38  1  0  0  0  0
  8 10  1  0  0  0  0
  8  7  1  0  0  0  0
  9  8  1  0  0  0  0
 10 11  2  0  0  0  0
 11 12  1  0  0  0  0
 11  4  1  0  0  0  0
 12  1  2  0  0  0  0
 12 39  1  0  0  0  0
 13 14  1  0  0  0  0
 13 10  1  0  0  0  0
 15 13  1  0  0  0  0
 16 17  1  0  0  0  0
 16 15  2  0  0  0  0
 18 16  1  0  0  0  0
 18 40  1  0  0  0  0
 19 18  2  0  0  0  0
 19 21  1  0  0  0  0
 20 19  1  0  0  0  0
 21 22  2  0  0  0  0
 21 41  1  0  0  0  0
 22 15  1  0  0  0  0
 22 23  1  0  0  0  0
 24 25  1  0  0  0  0
 25 42  1  0  0  0  0
 25 43  1  0  0  0  0
 25 44  1  0  0  0  0
 26 27  1  0  0  0  0
 27 28  1  0  0  0  0
 27 45  1  0  0  0  0
 27 46  1  0  0  0  0
 28 34  1  0  0  0  0
 28 29  1  0  0  0  0
 28 47  1  6  0  0  0
 29 48  1  0  0  0  0
 29 49  1  0  0  0  0
 30 32  1  0  0  0  0
 30 29  1  0  0  0  0
 30 31  1  0  0  0  0
 31 50  1  0  0  0  0
 31 51  1  0  0  0  0
 31 52  1  0  0  0  0
 32 33  1  0  0  0  0
 32 53  1  0  0  0  0
 32 54  1  0  0  0  0
 33 55  1  0  0  0  0
 33 56  1  0  0  0  0
 34 33  1  0  0  0  0
M  END
>  <MODEL>
1

>  <REMARK>
 VINA RESULT:      -7.8      0.000      0.000
  6 active torsions:
  status: ('A' for Active; 'I' for Inactive)
    1  A    between atoms: O_2  and  C_3 
    2  A    between atoms: C_4  and  O_5 
    3  A    between atoms: O_5  and  C_6 
    4  A    between atoms: C_6  and  C_7 
    5  A    between atoms: C_21  and  N_22 
    6  A    between atoms: N_22  and  C_24 

>  <TORSDO>
F 6

$$$$
resistance_project/docking/8faf60323ce63d5a/P00533_T790M/docked/molecule_0012_out.pdbqt
 OpenBabel09142609553D

 56 59  0  0  1  0  0  0  0  0999 V2000
  -49.6310    0.0240  -16.7540 C   0  0  0  0  0  0  0  0  0  0  0  0
  -50.5340    0.6860  -15.9320 C   0  0  1  0  0  0  0  0  0  0  0  0
  -51.5790    1.3980  -16.4820 C   0  0  0  0  0  0  0  0  0  0  0  0
  -51.7080    1.4400  -17.8710 C   0  0  0  0  0  0  0  0  0  0  0  0
  -52.7080    2.1200  -18.4610 N   0  0  0  0  0  0  0  0  0  0  0  0
  -53.3860    2.6150  -17.8800 H   0  0  0  0  0  0  0  0  0  0  0  0
  -52.8330    2.1610  -19.7990 C   0  0  0  0  0  0  0  0  0  0  0  0
  -51.9610    1.5210  -20.5960 N   0  0  0  0  0  0  0  0  0  0  0  0
  -52.0800    1.5700  -21.6080 H   0  0  0  0  0  0  0  0  0  0  0  0
  -50.9400    0.8230  -20.0910 C   0  0  0  0  0  0  0  0  0  0  0  0
  -50.8220    0.7900  -18.7080 C   0  0  0  0  0  0  0  0  0  0  0  0
  -49.7940    0.0900  -18.1230 C   0  0  0  0  0  0  0  0  0  0  0  0
  -49.9820    0.1260  -20.8400 N   0  0  0  0  0  0  0  0  0  0  0  0
  -49.0070    0.4270  -20.8290 H   0  0  0  0  0  0  0  0  0  0  0  0
  -50.3620   -0.9860  -21.6060 C   0  0  0  0  0  0  0  0  0  0  0  0
  -50.8970   -0.8770  -22.8890 C   0  0  0  0  0  0  0  0  0  0  0  0
  -51.0590    0.3590  -23.4300 F   0  0  0  0  0  0  0  0  0  0  0  0
  -51.2530   -2.0330  -23.5890 C   0  0  0  0  0  0  0  0  0  0  0  0
  -51.0810   -3.2980  -23.0190 C   0  0  0  0  0  0  0  0  0  0  0  0
  -51.5770   -4.8800  -23.9970 Br  0  0  0  0  0  0  0  0  0  0  0  0
  -50.5460   -3.4030  -21.7350 C   0  0  0  0  0  0  0  0  0  0  0  0
  -50.1900   -2.2500  -21.0350 C   0  0  0  0  0  0  0  0  0  0  0  0
  -49.6650   -2.3470  -19.7740 F   0  0  0  0  0  0  0  0  0  0  0  0
  -48.5770   -0.6960  -16.2390 O   0  0  0  0  0  0  0  0  0  0  0  0
  -48.0480   -1.7560  -17.0110 C   0  0  0  0  0  0  0  0  0  0  0  0
  -50.3130    0.5790  -14.5670 O   0  0  0  0  0  0  0  0  0  0  0  0
  -50.9680   -0.3940  -13.8080 C   0  0  0  0  0  0  0  0  0  0  0  0
  -50.1290   -0.8510  -12.6220 C   0  0  1  0  0  0  0  0  0  0  0  0
  -50.9430   -1.8870  -11.8760 C   0  0  0  0  0  0  0  0  0  0  0  0
  -51.6680   -2.6440  -12.8800 N   0  0  0  0  0  0  0  0  0  0  0  0
  -52.2590   -3.8440  -12.3230 C   0  0  0  0  0  0  0  0  0  0  0  0
  -50.7510   -2.9260  -13.9550 C   0  0  0  0  0  0  0  0  0  0  0  0
  -49.3150   -2.7940  -13.5510 C   0  0  0  0  0  0  0  0  0  0  0  0
  -48.9890   -1.5080  -13.1290 O   0  0  0  0  0  0  0  0  0  0  0  0
  -51.3960    1.3107  -15.8244 H   0  0  0  0  0  0  0  0  0  0  0  0
  -52.2540    1.8913  -15.8770 H   0  0  0  0  0  0  0  0  0  0  0  0
  -53.8004    1.7643  -20.0263 H   0  0  0  0  0  0  0  0  0  0  0  0
  -52.6429    3.1902  -20.0213 H   0  0  0  0  0  0  0  0  0  0  0  0
  -49.1201   -0.4038  -18.7288 H   0  0  0  0  0  0  0  0  0  0  0  0
  -51.6480   -1.9518  -24.5390 H   0  0  0  0  0  0  0  0  0  0  0  0
  -50.4139   -4.3313  -21.3040 H   0  0  0  0  0  0  0  0  0  0  0  0
  -47.2404   -2.2153  -16.4802 H   0  0  0  0  0  0  0  0  0  0  0  0
  -47.6899   -1.3736  -17.9440 H   0  0  0  0  0  0  0  0  0  0  0  0
  -48.8134   -2.4812  -17.1930 H   0  0  0  0  0  0  0  0  0  0  0  0
  -51.1736   -1.2386  -14.4319 H   0  0  0  0  0  0  0  0  0  0  0  0
  -51.8717    0.0351  -13.4284 H   0  0  0  0  0  0  0  0  0  0  0  0
  -49.8575   -0.0268  -11.9961 H   0  0  0  0  0  0  0  0  0  0  0  0
  -50.2972   -2.5342  -11.3202 H   0  0  0  0  0  0  0  0  0  0  0  0
  -51.6132   -1.4252  -11.1814 H   0  0  0  0  0  0  0  0  0  0  0  0
  -52.7831   -4.3732  -13.0913 H   0  0  0  0  0  0  0  0  0  0  0  0
  -52.9424   -3.5766  -11.5443 H   0  0  0  0  0  0  0  0  0  0  0  0
  -51.4880   -4.4683  -11.9222 H   0  0  0  0  0  0  0  0  0  0  0  0
  -50.9193   -3.9273  -14.2925 H   0  0  0  0  0  0  0  0  0  0  0  0
  -50.9330   -2.2076  -14.7268 H   0  0  0  0  0  0  0  0  0  0  0  0
  -48.6996   -3.0449  -14.3896 H   0  0  0  0  0  0  0  0  0  0  0  0
  -49.1506   -3.4551  -12.7259 H   0  0  0  0  0  0  0  0  0  0  0  0
  1 24  1  0  0  0  0
  1  2  1  0  0  0  0
  2 26  1  0  0  0  0
  2 35  1  6  0  0  0
  3  2  1  0  0  0  0
  3 36  1  0  0  0  0
  4  3  2  0  0  0  0
  5  6  1  0  0  0  0
  5  4  1  0  0  0  0
  7  5  1  0  0  0  0
  7 37  1  0  0  0  0
  7 38  1  0  0  0  0
  8 10  1  0  0  0  0
  8  7  1  0  0  0  0
  9  8  1  0  0  0  0
 10 11  2  0  0  0  0
 11 12  1  0  0  0  0
 11  4  1  0  0  0  0
 12  1  2  0  0  0  0
 12 39  1  0  0  0  0
 13 14  1  0  0  0  0
 13 10  1  0  0  0  0
 15 22  1  0  0  0  0
 15 13  1  0  0  0  0
 16 15  2  0  0  0  0
 17 16  1  0  0  0  0
 18 19  2  0  0  0  0
 18 16  1  0  0  0  0
 18 40  1  0  0  0  0
 19 21  1  0  0  0  0
 20 19  1  0  0  0  0
 21 22  2  0  0  0  0
 21 41  1  0  0  0  0
 22 23  1  0  0  0  0
 25 24  1  0  0  0  0
 25 42  1  0  0  0  0
 25 43  1  0  0  0  0
 25 44  1  0  0  0  0
 26 27  1  0  0  0  0
 27 28  1  0  0  0  0
 27 45  1  0  0  0  0
 27 46  1  0  0  0  0
 28 29  1  0  0  0  0
 28 47  1  1  0  0  0
 29 48  1  0  0  0  0
 29 49  1  0  0  0  0
 30 31  1  0  0  0  0
 30 29  1  0  0  0  0
 31 50  1  0  0  0  0
 31 51  1  0  0  0  0
 31 52  1  0  0  0  0
 32 33  1  0  0  0  0
 32 30  1  0  0  0  0
 32 53  1  0  0  0  0
 32 54  1  0  0  0  0
 33 34  1  0  0  0  0
 33 55  1  0  0  0  0
 33 56  1  0  0  0  0
 34 28  1  0  0  0  0
M  END
>  <REMARK>
 VINA RESULT:      -7.7      1.996      2.559
  6 active torsions:
  status: ('A' for Active; 'I' for Inactive)
    1  A    between atoms: O_2  and  C_3 
    2  A    between atoms: C_4  and  O_5 
    3  A    between atoms: O_5  and  C_6 
    4  A    between atoms: C_6  and  C_7 
    5  A    between atoms: C_21  and  N_22 
    6  A    between atoms: N_22  and  C_24 

>  <TORSDO>
F 6

$$$$
resistance_project/docking/8faf60323ce63d5a/P00533_T790M/docked/molecule_0012_out.pdbqt
 OpenBabel09142609553D

 56 59  0  0  1  0  0  0  0  0999 V2000
  -49.6960    0.2260  -16.7160 C   0  0  0  0  0  0  0  0  0  0  0  0
  -50.6130    0.9250  -15.9400 C   0  0  1  0  0  0  0  0  0  0  0  0
  -51.6600    1.5920  -16.5360 C   0  0  0  0  0  0  0  0  0  0  0  0
  -51.7810    1.5520  -17.9260 C   0  0  0  0  0  0  0  0  0  0  0  0
  -52.7830    2.1850  -18.5610 N   0  0  0  0  0  0  0  0  0  0  0  0
  -53.4700    2.7060  -18.0150 H   0  0  0  0  0  0  0  0  0  0  0  0
  -52.9000    2.1470  -19.9010 C   0  0  0  0  0  0  0  0  0  0  0  0
  -52.0150    1.4720  -20.6540 N   0  0  0  0  0  0  0  0  0  0  0  0
  -52.1280    1.4600  -21.6670 H   0  0  0  0  0  0  0  0  0  0  0  0
  -50.9900    0.8160  -20.1020 C   0  0  0  0  0  0  0  0  0  0  0  0
  -50.8820    0.8640  -18.7180 C   0  0  0  0  0  0  0  0  0  0  0  0
  -49.8510    0.2100  -18.0870 C   0  0  0  0  0  0  0  0  0  0  0  0
  -50.0200    0.0860  -20.8030 N   0  0  0  0  0  0  0  0  0  0  0  0
  -49.0540    0.4150  -20.8290 H   0  0  0  0  0  0  0  0  0  0  0  0
  -50.3750   -1.0960  -21.4690 C   0  0  0  0  0  0  0  0  0  0  0  0
  -50.2860   -2.3560  -20.8790 C   0  0  0  0  0  0  0  0  0  0  0  0
  -49.8350   -2.4510  -19.6000 F   0  0  0  0  0  0  0  0  0  0  0  0
  -50.6580   -3.4880  -21.6080 C   0  0  0  0  0  0  0  0  0  0  0  0
  -51.1190   -3.3750  -22.9230 C   0  0  0  0  0  0  0  0  0  0  0  0
  -51.6290   -4.9450  -23.9130 Br  0  0  0  0  0  0  0  0  0  0  0  0
  -51.2080   -2.1130  -23.5100 C   0  0  0  0  0  0  0  0  0  0  0  0
  -50.8370   -0.9810  -22.7840 C   0  0  0  0  0  0  0  0  0  0  0  0
  -50.9210    0.2600  -23.3560 F   0  0  0  0  0  0  0  0  0  0  0  0
  -48.6390   -0.4520  -16.1530 O   0  0  0  0  0  0  0  0  0  0  0  0
  -48.1630   -1.6130  -16.8050 C   0  0  0  0  0  0  0  0  0  0  0  0
  -50.4000    0.8990  -14.5690 O   0  0  0  0  0  0  0  0  0  0  0  0
  -51.4720    0.8120  -13.6780 C   0  0  0  0  0  0  0  0  0  0  0  0
  -51.0710    1.2140  -12.2640 C   0  0  1  0  0  0  0  0  0  0  0  0
  -52.2830    0.9980  -11.3820 C   0  0  0  0  0  0  0  0  0  0  0  0
  -52.9530   -0.1870  -11.8840 N   0  0  0  0  0  0  0  0  0  0  0  0
  -53.9610   -0.6640  -10.9580 C   0  0  0  0  0  0  0  0  0  0  0  0
  -51.9400   -1.1740  -12.1580 C   0  0  0  0  0  0  0  0  0  0  0  0
  -50.6480   -0.9000  -11.4550 C   0  0  0  0  0  0  0  0  0  0  0  0
  -50.0770    0.3140  -11.8280 O   0  0  0  0  0  0  0  0  0  0  0  0
  -51.4867    1.5404  -15.8877 H   0  0  0  0  0  0  0  0  0  0  0  0
  -52.3437    2.1127  -15.9646 H   0  0  0  0  0  0  0  0  0  0  0  0
  -53.8612    1.7263  -20.1107 H   0  0  0  0  0  0  0  0  0  0  0  0
  -52.7208    3.1638  -20.1818 H   0  0  0  0  0  0  0  0  0  0  0  0
  -49.1685   -0.3116  -18.6589 H   0  0  0  0  0  0  0  0  0  0  0  0
  -50.5917   -4.4201  -21.1701 H   0  0  0  0  0  0  0  0  0  0  0  0
  -51.5477   -2.0168  -24.4797 H   0  0  0  0  0  0  0  0  0  0  0  0
  -47.3458   -2.0241  -16.2500 H   0  0  0  0  0  0  0  0  0  0  0  0
  -47.8327   -1.3586  -17.7904 H   0  0  0  0  0  0  0  0  0  0  0  0
  -48.9503   -2.3349  -16.8679 H   0  0  0  0  0  0  0  0  0  0  0  0
  -51.8279   -0.1970  -13.6628 H   0  0  0  0  0  0  0  0  0  0  0  0
  -52.2342    1.4855  -14.0102 H   0  0  0  0  0  0  0  0  0  0  0  0
  -50.7239    2.2255  -12.2288 H   0  0  0  0  0  0  0  0  0  0  0  0
  -52.9363    1.8436  -11.4382 H   0  0  0  0  0  0  0  0  0  0  0  0
  -51.9989    0.8767  -10.3576 H   0  0  0  0  0  0  0  0  0  0  0  0
  -54.4318   -1.5361  -11.3614 H   0  0  0  0  0  0  0  0  0  0  0  0
  -54.6951    0.0994  -10.8055 H   0  0  0  0  0  0  0  0  0  0  0  0
  -53.5002   -0.9075  -10.0235 H   0  0  0  0  0  0  0  0  0  0  0  0
  -51.7572   -1.1907  -13.2121 H   0  0  0  0  0  0  0  0  0  0  0  0
  -52.3051   -2.1138  -11.7996 H   0  0  0  0  0  0  0  0  0  0  0  0
  -49.9600   -1.6864  -11.6855 H   0  0  0  0  0  0  0  0  0  0  0  0
  -50.8564   -0.8491  -10.4067 H   0  0  0  0  0  0  0  0  0  0  0  0
  1 24  1  0  0  0  0
  1  2  1  0  0  0  0
  2 26  1  0  0  0  0
  2 35  1  6  0  0  0
  3  2  1  0  0  0  0
  3 36  1  0  0  0  0
  4  3  2  0  0  0  0
  5  6  1  0  0  0  0
  5  4  1  0  0  0  0
  7  5  1  0  0  0  0
  7 37  1  0  0  0  0
  7 38  1  0  0  0  0
  8 10  1  0  0  0  0
  8  7  1  0  0  0  0
  9  8  1  0  0  0  0
 10 11  2  0  0  0  0
 11 12  1  0  0  0  0
 11  4  1  0  0  0  0
 12  1  2  0  0  0  0
 12 39  1  0  0  0  0
 13 10  1  0  0  0  0
 14 13  1  0  0  0  0
 15 16  1  0  0  0  0
 15 13  1  0  0  0  0
 16 17  1  0  0  0  0
 18 16  2  0  0  0  0
 18 40  1  0  0  0  0
 19 18  1  0  0  0  0
 20 19  1  0  0  0  0
 21 19  2  0  0  0  0
 21 22  1  0  0  0  0
 21 41  1  0  0  0  0
 22 15  2  0  0  0  0
 23 22  1  0  0  0  0
 25 24  1  0  0  0  0
 25 42  1  0  0  0  0
 25 43  1  0  0  0  0
 25 44  1  0  0  0  0
 26 27  1  0  0  0  0
 27 28  1  0  0  0  0
 27 45  1  0  0  0  0
 27 46  1  0  0  0  0
 28 34  1  0  0  0  0
 28 29  1  0  0  0  0
 28 47  1  1  0  0  0
 29 48  1  0  0  0  0
 29 49  1  0  0  0  0
 30 29  1  0  0  0  0
 30 31  1  0  0  0  0
 31 50  1  0  0  0  0
 31 51  1  0  0  0  0
 31 52  1  0  0  0  0
 32 30  1  0  0  0  0
 32 33  1  0  0  0  0
 32 53  1  0  0  0  0
 32 54  1  0  0  0  0
 33 55  1  0  0  0  0
 33 56  1  0  0  0  0
 34 33  1  0  0  0  0
M  END
>  <REMARK>
 VINA RESULT:      -7.3      2.067      2.870
  6 active torsions:
  status: ('A' for Active; 'I' for Inactive)
    1  A    between atoms: O_2  and  C_3 
    2  A    between atoms: C_4  and  O_5 
    3  A    between atoms: O_5  and  C_6 
    4  A    between atoms: C_6  and  C_7 
    5  A    between atoms: C_21  and  N_22 
    6  A    between atoms: N_22  and  C_24 

>  <TORSDO>
F 6

$$$$
resistance_project/docking/8faf60323ce63d5a/P00533_T790M/docked/molecule_0012_out.pdbqt
 OpenBabel09142609553D

 56 59  0  0  1  0  0  0  0  0999 V2000
  -50.5310    1.0070  -15.7350 C   0  0  0  0  0  0  0  0  0  0  0  0
  -50.5720   -0.0640  -14.8510 C   0  0  1  0  0  0  0  0  0  0  0  0
  -50.4850   -1.3560  -15.3220 C   0  0  0  0  0  0  0  0  0  0  0  0
  -50.3570   -1.5650  -16.6960 C   0  0  0  0  0  0  0  0  0  0  0  0
  -50.2690   -2.8040  -17.2100 N   0  0  0  0  0  0  0  0  0  0  0  0
  -50.2960   -3.6090  -16.5830 H   0  0  0  0  0  0  0  0  0  0  0  0
  -50.1450   -3.0070  -18.5340 C   0  0  0  0  0  0  0  0  0  0  0  0
  -50.1060   -1.9730  -19.3920 N   0  0  0  0  0  0  0  0  0  0  0  0
  -50.0120   -2.1560  -20.3910 H   0  0  0  0  0  0  0  0  0  0  0  0
  -50.1870   -0.7100  -18.9630 C   0  0  0  0  0  0  0  0  0  0  0  0
  -50.3140   -0.5160  -17.5940 C   0  0  0  0  0  0  0  0  0  0  0  0
  -50.4030    0.7580  -17.0860 C   0  0  0  0  0  0  0  0  0  0  0  0
  -50.1550    0.4290  -19.7790 N   0  0  0  0  0  0  0  0  0  0  0  0
  -49.3820    1.0900  -19.7030 H   0  0  0  0  0  0  0  0  0  0  0  0
  -51.1860    0.6610  -20.7020 C   0  0  0  0  0  0  0  0  0  0  0  0
  -52.3150    1.4230  -20.4030 C   0  0  0  0  0  0  0  0  0  0  0  0
  -52.4280    1.9700  -19.1640 F   0  0  0  0  0  0  0  0  0  0  0  0
  -53.3010    1.6080  -21.3760 C   0  0  0  0  0  0  0  0  0  0  0  0
  -53.1700    1.0380  -22.6460 C   0  0  0  0  0  0  0  0  0  0  0  0
  -54.5370    1.3030  -23.9750 Br  0  0  0  0  0  0  0  0  0  0  0  0
  -52.0400    0.2760  -22.9420 C   0  0  0  0  0  0  0  0  0  0  0  0
  -51.0550    0.0910  -21.9710 C   0  0  0  0  0  0  0  0  0  0  0  0
  -49.9430   -0.6570  -22.2560 F   0  0  0  0  0  0  0  0  0  0  0  0
  -50.6150    2.3100  -15.2990 O   0  0  0  0  0  0  0  0  0  0  0  0
  -51.7550    3.0660  -15.6590 C   0  0  0  0  0  0  0  0  0  0  0  0
  -50.7010    0.2560  -13.5070 O   0  0  0  0  0  0  0  0  0  0  0  0
  -51.9220    0.0980  -12.8460 C   0  0  0  0  0  0  0  0  0  0  0  0
  -51.9100    0.7440  -11.4670 C   0  0  1  0  0  0  0  0  0  0  0  0
  -53.2370    0.4180  -10.8140 C   0  0  0  0  0  0  0  0  0  0  0  0
  -53.5870   -0.9250  -11.2360 N   0  0  0  0  0  0  0  0  0  0  0  0
  -54.6860   -1.4610  -10.4590 C   0  0  0  0  0  0  0  0  0  0  0  0
  -52.3970   -1.7320  -11.1420 C   0  0  0  0  0  0  0  0  0  0  0  0
  -51.3500   -1.1330  -10.2550 C   0  0  0  0  0  0  0  0  0  0  0  0
  -50.9080    0.1090  -10.7040 O   0  0  0  0  0  0  0  0  0  0  0  0
  -50.5667   -1.1223  -14.6933 H   0  0  0  0  0  0  0  0  0  0  0  0
  -50.5140   -2.1554  -14.6700 H   0  0  0  0  0  0  0  0  0  0  0  0
  -49.2357   -3.5532  -18.6742 H   0  0  0  0  0  0  0  0  0  0  0  0
  -51.0673   -3.4873  -18.7859 H   0  0  0  0  0  0  0  0  0  0  0  0
  -50.3730    1.5570  -17.7385 H   0  0  0  0  0  0  0  0  0  0  0  0
  -54.1361    2.1723  -21.1544 H   0  0  0  0  0  0  0  0  0  0  0  0
  -51.9327   -0.1496  -23.8760 H   0  0  0  0  0  0  0  0  0  0  0  0
  -51.6741    4.0508  -15.2484 H   0  0  0  0  0  0  0  0  0  0  0  0
  -52.6337    2.5908  -15.2757 H   0  0  0  0  0  0  0  0  0  0  0  0
  -51.8195    3.1283  -16.7252 H   0  0  0  0  0  0  0  0  0  0  0  0
  -52.1232   -0.9472  -12.7365 H   0  0  0  0  0  0  0  0  0  0  0  0
  -52.6793    0.5779  -13.4300 H   0  0  0  0  0  0  0  0  0  0  0  0
  -51.7419    1.7987  -11.5315 H   0  0  0  0  0  0  0  0  0  0  0  0
  -53.9860    1.1123  -11.1330 H   0  0  0  0  0  0  0  0  0  0  0  0
  -53.1690    0.4824   -9.7481 H   0  0  0  0  0  0  0  0  0  0  0  0
  -54.9142   -2.4497  -10.7987 H   0  0  0  0  0  0  0  0  0  0  0  0
  -55.5458   -0.8355  -10.5786 H   0  0  0  0  0  0  0  0  0  0  0  0
  -54.4097   -1.4938   -9.4258 H   0  0  0  0  0  0  0  0  0  0  0  0
  -51.9862   -1.8486  -12.1231 H   0  0  0  0  0  0  0  0  0  0  0  0
  -52.6806   -2.6701  -10.7125 H   0  0  0  0  0  0  0  0  0  0  0  0
  -50.5138   -1.7994  -10.2150 H   0  0  0  0  0  0  0  0  0  0  0  0
  -51.7894   -0.9889   -9.2901 H   0  0  0  0  0  0  0  0  0  0  0  0
  1 24  1  0  0  0  0
  1  2  1  0  0  0  0
  2 26  1  0  0  0  0
  2 35  1  6  0  0  0
  3  2  1  0  0  0  0
  3 36  1  0  0  0  0
  4  3  2  0  0  0  0
  5  4  1  0  0  0  0
  5  6  1  0  0  0  0
  7  5  1  0  0  0  0
  7 37  1  0  0  0  0
  7 38  1  0  0  0  0
  8 10  1  0  0  0  0
  8  7  1  0  0  0  0
  9  8  1  0  0  0  0
 10 11  2  0  0  0  0
 11 12  1  0  0  0  0
 11  4  1  0  0  0  0
 12  1  2  0  0  0  0
 12 39  1  0  0  0  0
 13 14  1  0  0  0  0
 13 10  1  0  0  0  0
 15 16  1  0  0  0  0
 15 13  1  0  0  0  0
 16 17  1  0  0  0  0
 18 16  2  0  0  0  0
 18 40  1  0  0  0  0
 19 18  1  0  0  0  0
 20 19  1  0  0  0  0
 21 19  2  0  0  0  0
 21 22  1  0  0  0  0
 21 41  1  0  0  0  0
 22 15  2  0  0  0  0
 23 22  1  0  0  0  0
 25 24  1  0  0  0  0
 25 42  1  0  0  0  0
 25 43  1  0  0  0  0
 25 44  1  0  0  0  0
 26 27  1  0  0  0  0
 27 28  1  0  0  0  0
 27 45  1  0  0  0  0
 27 46  1  0  0  0  0
 28 29  1  0  0  0  0
 28 34  1  0  0  0  0
 28 47  1  6  0  0  0
 29 48  1  0  0  0  0
 29 49  1  0  0  0  0
 30 32  1  0  0  0  0
 30 29  1  0  0  0  0
 30 31  1  0  0  0  0
 31 50  1  0  0  0  0
 31 51  1  0  0  0  0
 31 52  1  0  0  0  0
 32 33  1  0  0  0  0
 32 53  1  0  0  0  0
 32 54  1  0  0  0  0
 33 55  1  0  0  0  0
 33 56  1  0  0  0  0
 34 33  1  0  0  0  0
M  END
>  <REMARK>
 VINA RESULT:      -7.2      2.515      4.063
  6 active torsions:
  status: ('A' for Active; 'I' for Inactive)
    1  A    between atoms: O_2  and  C_3 
    2  A    between atoms: C_4  and  O_5 
    3  A    between atoms: O_5  and  C_6 
    4  A    between atoms: C_6  and  C_7 
    5  A    between atoms: C_21  and  N_22 
    6  A    between atoms: N_22  and  C_24 

>  <TORSDO>
F 6

$$$$
resistance_project/docking/8faf60323ce63d5a/P00533_T790M/docked/molecule_0012_out.pdbqt
 OpenBabel09142609553D

 56 59  0  0  1  0  0  0  0  0999 V2000
  -50.0890    0.4060  -16.1940 C   0  0  0  0  0  0  0  0  0  0  0  0
  -50.1520   -0.7010  -15.3560 C   0  0  1  0  0  0  0  0  0  0  0  0
  -50.1580   -1.9730  -15.8860 C   0  0  0  0  0  0  0  0  0  0  0  0
  -50.1010   -2.1250  -17.2720 C   0  0  0  0  0  0  0  0  0  0  0  0
  -50.1040   -3.3420  -17.8440 N   0  0  0  0  0  0  0  0  0  0  0  0
  -50.1500   -4.1720  -17.2510 H   0  0  0  0  0  0  0  0  0  0  0  0
  -50.0490   -3.4900  -19.1800 C   0  0  0  0  0  0  0  0  0  0  0  0
  -49.9880   -2.4220  -19.9920 N   0  0  0  0  0  0  0  0  0  0  0  0
  -49.9480   -2.5640  -21.0020 H   0  0  0  0  0  0  0  0  0  0  0  0
  -49.9800   -1.1780  -19.5050 C   0  0  0  0  0  0  0  0  0  0  0  0
  -50.0380   -1.0400  -18.1250 C   0  0  0  0  0  0  0  0  0  0  0  0
  -50.0330    0.2120  -17.5590 C   0  0  0  0  0  0  0  0  0  0  0  0
  -49.9190   -0.0050  -20.2720 N   0  0  0  0  0  0  0  0  0  0  0  0
  -49.1360    0.6390  -20.1580 H   0  0  0  0  0  0  0  0  0  0  0  0
  -50.9330    0.2820  -21.1980 C   0  0  0  0  0  0  0  0  0  0  0  0
  -50.9610   -0.2560  -22.4840 C   0  0  0  0  0  0  0  0  0  0  0  0
  -49.9650   -1.0980  -22.8650 F   0  0  0  0  0  0  0  0  0  0  0  0
  -52.0060    0.0780  -23.3500 C   0  0  0  0  0  0  0  0  0  0  0  0
  -53.0230    0.9460  -22.9430 C   0  0  0  0  0  0  0  0  0  0  0  0
  -54.4550    1.3970  -24.1490 Br  0  0  0  0  0  0  0  0  0  0  0  0
  -52.9920    1.4830  -21.6560 C   0  0  0  0  0  0  0  0  0  0  0  0
  -51.9500    1.1500  -20.7910 C   0  0  0  0  0  0  0  0  0  0  0  0
  -51.9130    1.6740  -19.5250 F   0  0  0  0  0  0  0  0  0  0  0  0
  -50.0800    1.6900  -15.6980 O   0  0  0  0  0  0  0  0  0  0  0  0
  -51.2150    2.5030  -15.9230 C   0  0  0  0  0  0  0  0  0  0  0  0
  -50.2050   -0.4360  -13.9950 O   0  0  0  0  0  0  0  0  0  0  0  0
  -51.1950   -1.0080  -13.1910 C   0  0  0  0  0  0  0  0  0  0  0  0
  -50.8130   -0.9860  -11.7170 C   0  0  1  0  0  0  0  0  0  0  0  0
  -51.8480   -1.8100  -10.9790 C   0  0  0  0  0  0  0  0  0  0  0  0
  -52.2040   -2.9080  -11.8570 N   0  0  0  0  0  0  0  0  0  0  0  0
  -52.9690   -3.9240  -11.1610 C   0  0  0  0  0  0  0  0  0  0  0  0
  -50.9830   -3.4240  -12.4230 C   0  0  0  0  0  0  0  0  0  0  0  0
  -49.7660   -3.0360  -11.6420 C   0  0  0  0  0  0  0  0  0  0  0  0
  -49.5800   -1.6570  -11.5830 O   0  0  0  0  0  0  0  0  0  0  0  0
  -50.1979   -1.7643  -15.2453 H   0  0  0  0  0  0  0  0  0  0  0  0
  -50.2038   -2.7988  -15.2687 H   0  0  0  0  0  0  0  0  0  0  0  0
  -49.1793   -4.0785  -19.3854 H   0  0  0  0  0  0  0  0  0  0  0  0
  -51.0073   -3.9065  -19.4104 H   0  0  0  0  0  0  0  0  0  0  0  0
  -49.9857    1.0371  -18.1771 H   0  0  0  0  0  0  0  0  0  0  0  0
  -52.0269   -0.3211  -24.3015 H   0  0  0  0  0  0  0  0  0  0  0  0
  -53.7379    2.1248  -21.3449 H   0  0  0  0  0  0  0  0  0  0  0  0
  -51.0583    3.4646  -15.4807 H   0  0  0  0  0  0  0  0  0  0  0  0
  -52.0755    2.0439  -15.4829 H   0  0  0  0  0  0  0  0  0  0  0  0
  -51.3700    2.6156  -16.9757 H   0  0  0  0  0  0  0  0  0  0  0  0
  -51.3434   -2.0232  -13.4947 H   0  0  0  0  0  0  0  0  0  0  0  0
  -52.0906   -0.4348  -13.3098 H   0  0  0  0  0  0  0  0  0  0  0  0
  -50.7552    0.0151  -11.3436 H   0  0  0  0  0  0  0  0  0  0  0  0
  -51.4378   -2.1859  -10.0650 H   0  0  0  0  0  0  0  0  0  0  0  0
  -52.7056   -1.2205  -10.7300 H   0  0  0  0  0  0  0  0  0  0  0  0
  -53.2120   -4.7148  -11.8396 H   0  0  0  0  0  0  0  0  0  0  0  0
  -53.8704   -3.4924  -10.7787 H   0  0  0  0  0  0  0  0  0  0  0  0
  -52.3892   -4.3147  -10.3510 H   0  0  0  0  0  0  0  0  0  0  0  0
  -50.8831   -3.0470  -13.4194 H   0  0  0  0  0  0  0  0  0  0  0  0
  -51.0480   -4.4919  -12.4044 H   0  0  0  0  0  0  0  0  0  0  0  0
  -48.9079   -3.4773  -12.1044 H   0  0  0  0  0  0  0  0  0  0  0  0
  -49.9009   -3.3862  -10.6400 H   0  0  0  0  0  0  0  0  0  0  0  0
  1 24  1  0  0  0  0
  1  2  1  0  0  0  0
  2 26  1  0  0  0  0
  2 35  1  6  0  0  0
  3  2  1  0  0  0  0
  3 36  1  0  0  0  0
  4  3  2  0  0  0  0
  5  4  1  0  0  0  0
  5  6  1  0  0  0  0
  7  5  1  0  0  0  0
  7 37  1  0  0  0  0
  7 38  1  0  0  0  0
  8 10  1  0  0  0  0
  8  7  1  0  0  0  0
  9  8  1  0  0  0  0
 10 11  2  0  0  0  0
 11 12  1  0  0  0  0
 11  4  1  0  0  0  0
 12  1  2  0  0  0  0
 12 39  1  0  0  0  0
 13 14  1  0  0  0  0
 13 10  1  0  0  0  0
 15 22  1  0  0  0  0
 15 13  1  0  0  0  0
 16 15  2  0  0  0  0
 17 16  1  0  0  0  0
 18 19  2  0  0  0  0
 18 16  1  0  0  0  0
 18 40  1  0  0  0  0
 19 21  1  0  0  0  0
 20 19  1  0  0  0  0
 21 22  2  0  0  0  0
 21 41  1  0  0  0  0
 22 23  1  0  0  0  0
 25 24  1  0  0  0  0
 25 42  1  0  0  0  0
 25 43  1  0  0  0  0
 25 44  1  0  0  0  0
 26 27  1  0  0  0  0
 27 28  1  0  0  0  0
 27 45  1  0  0  0  0
 27 46  1  0  0  0  0
 28 34  1  0  0  0  0
 28 29  1  0  0  0  0
 28 47  1  1  0  0  0
 29 48  1  0  0  0  0
 29 49  1  0  0  0  0
 30 31  1  0  0  0  0
 30 29  1  0  0  0  0
 31 50  1  0  0  0  0
 31 51  1  0  0  0  0
 31 52  1  0  0  0  0
 32 30  1  0  0  0  0
 32 33  1  0  0  0  0
 32 53  1  0  0  0  0
 32 54  1  0  0  0  0
 33 34  1  0  0  0  0
 33 55  1  0  0  0  0
 33 56  1  0  0  0  0
M  END
>  <REMARK>
 VINA RESULT:      -7.2      2.437      3.896
  6 active torsions:
  status: ('A' for Active; 'I' for Inactive)
    1  A    between atoms: O_2  and  C_3 
    2  A    between atoms: C_4  and  O_5 
    3  A    between atoms: O_5  and  C_6 
    4  A    between atoms: C_6  and  C_7 
    5  A    between atoms: C_21  and  N_22 
    6  A    between atoms: N_22  and  C_24 

>  <TORSDO>
F 6

$$$$
resistance_project/docking/8faf60323ce63d5a/P00533_T790M/docked/molecule_0012_out.pdbqt
 OpenBabel09142609553D

 56 59  0  0  1  0  0  0  0  0999 V2000
  -50.0250    0.6730  -16.8830 C   0  0  0  0  0  0  0  0  0  0  0  0
  -50.9950    1.4230  -16.2300 C   0  0  1  0  0  0  0  0  0  0  0  0
  -52.0370    1.9790  -16.9400 C   0  0  0  0  0  0  0  0  0  0  0  0
  -52.0960    1.7750  -18.3190 C   0  0  0  0  0  0  0  0  0  0  0  0
  -53.0900    2.2950  -19.0620 N   0  0  0  0  0  0  0  0  0  0  0  0
  -53.8160    2.8500  -18.6070 H   0  0  0  0  0  0  0  0  0  0  0  0
  -53.1480    2.0990  -20.3910 C   0  0  0  0  0  0  0  0  0  0  0  0
  -52.2110    1.3750  -21.0260 N   0  0  0  0  0  0  0  0  0  0  0  0
  -52.2800    1.2430  -22.0350 H   0  0  0  0  0  0  0  0  0  0  0  0
  -51.1910    0.8240  -20.3620 C   0  0  0  0  0  0  0  0  0  0  0  0
  -51.1430    1.0340  -18.9910 C   0  0  0  0  0  0  0  0  0  0  0  0
  -50.1200    0.4950  -18.2490 C   0  0  0  0  0  0  0  0  0  0  0  0
  -50.1690    0.0550  -20.9370 N   0  0  0  0  0  0  0  0  0  0  0  0
  -49.2010    0.3760  -20.8920 H   0  0  0  0  0  0  0  0  0  0  0  0
  -50.4750   -1.1580  -21.5720 C   0  0  0  0  0  0  0  0  0  0  0  0
  -50.4650   -2.3850  -20.9100 C   0  0  0  0  0  0  0  0  0  0  0  0
  -50.1460   -2.4170  -19.5890 F   0  0  0  0  0  0  0  0  0  0  0  0
  -50.7810   -3.5510  -21.6130 C   0  0  0  0  0  0  0  0  0  0  0  0
  -51.1070   -3.5040  -22.9710 C   0  0  0  0  0  0  0  0  0  0  0  0
  -51.5400   -5.1190  -23.9240 Br  0  0  0  0  0  0  0  0  0  0  0  0
  -51.1160   -2.2740  -23.6300 C   0  0  0  0  0  0  0  0  0  0  0  0
  -50.8010   -1.1090  -22.9300 C   0  0  0  0  0  0  0  0  0  0  0  0
  -50.8070    0.1010  -23.5720 F   0  0  0  0  0  0  0  0  0  0  0  0
  -48.9710    0.1040  -16.2050 O   0  0  0  0  0  0  0  0  0  0  0  0
  -48.5480   -1.1900  -16.5890 C   0  0  0  0  0  0  0  0  0  0  0  0
  -50.8400    1.5620  -14.8580 O   0  0  0  0  0  0  0  0  0  0  0  0
  -51.0290    2.7990  -14.2370 C   0  0  0  0  0  0  0  0  0  0  0  0
  -49.7940    3.2430  -13.4640 C   0  0  1  0  0  0  0  0  0  0  0  0
  -49.9930    4.7020  -13.1090 C   0  0  0  0  0  0  0  0  0  0  0  0
  -51.4070    4.8690  -12.8280 N   0  0  0  0  0  0  0  0  0  0  0  0
  -51.6810    6.1460  -12.2010 C   0  0  0  0  0  0  0  0  0  0  0  0
  -51.8210    3.7530  -12.0150 C   0  0  0  0  0  0  0  0  0  0  0  0
  -50.6770    3.0580  -11.3450 C   0  0  0  0  0  0  0  0  0  0  0  0
  -49.7650    2.5230  -12.2520 O   0  0  0  0  0  0  0  0  0  0  0  0
  -51.8812    2.0201  -16.2859 H   0  0  0  0  0  0  0  0  0  0  0  0
  -52.7609    2.5364  -16.4602 H   0  0  0  0  0  0  0  0  0  0  0  0
  -54.0855    1.6221  -20.5874 H   0  0  0  0  0  0  0  0  0  0  0  0
  -52.9889    3.0827  -20.7807 H   0  0  0  0  0  0  0  0  0  0  0  0
  -49.3969   -0.0627  -18.7297 H   0  0  0  0  0  0  0  0  0  0  0  0
  -50.7735   -4.4589  -21.1225 H   0  0  0  0  0  0  0  0  0  0  0  0
  -51.3551   -2.2262  -24.6328 H   0  0  0  0  0  0  0  0  0  0  0  0
  -47.7264   -1.4937  -15.9744 H   0  0  0  0  0  0  0  0  0  0  0  0
  -48.2405   -1.1753  -17.6138 H   0  0  0  0  0  0  0  0  0  0  0  0
  -49.3571   -1.8799  -16.4693 H   0  0  0  0  0  0  0  0  0  0  0  0
  -51.8526    2.7227  -13.5583 H   0  0  0  0  0  0  0  0  0  0  0  0
  -51.2216    3.5255  -14.9985 H   0  0  0  0  0  0  0  0  0  0  0  0
  -48.9009    3.0869  -14.0322 H   0  0  0  0  0  0  0  0  0  0  0  0
  -49.7032    5.3248  -13.9294 H   0  0  0  0  0  0  0  0  0  0  0  0
  -49.3957    4.9799  -12.2659 H   0  0  0  0  0  0  0  0  0  0  0  0
  -51.3553    6.9364  -12.8444 H   0  0  0  0  0  0  0  0  0  0  0  0
  -51.1576    6.2057  -11.2697 H   0  0  0  0  0  0  0  0  0  0  0  0
  -52.7325    6.2390  -12.0258 H   0  0  0  0  0  0  0  0  0  0  0  0
  -52.3298    3.0478  -12.6384 H   0  0  0  0  0  0  0  0  0  0  0  0
  -52.4558    4.1379  -11.2444 H   0  0  0  0  0  0  0  0  0  0  0  0
  -50.1665    3.7624  -10.7220 H   0  0  0  0  0  0  0  0  0  0  0  0
  -51.0810    2.2460  -10.7772 H   0  0  0  0  0  0  0  0  0  0  0  0
  1  2  1  0  0  0  0
  1 24  1  0  0  0  0
  2 26  1  0  0  0  0
  2 35  1  6  0  0  0
  3  2  1  0  0  0  0
  3 36  1  0  0  0  0
  4  3  2  0  0  0  0
  5  6  1  0  0  0  0
  5  4  1  0  0  0  0
  7  5  1  0  0  0  0
  7 37  1  0  0  0  0
  7 38  1  0  0  0  0
  8  7  1  0  0  0  0
  8 10  1  0  0  0  0
  9  8  1  0  0  0  0
 10 11  2  0  0  0  0
 11  4  1  0  0  0  0
 11 12  1  0  0  0  0
 12  1  2  0  0  0  0
 12 39  1  0  0  0  0
 13 14  1  0  0  0  0
 13 10  1  0  0  0  0
 15 13  1  0  0  0  0
 15 16  1  0  0  0  0
 16 17  1  0  0  0  0
 18 16  2  0  0  0  0
 18 40  1  0  0  0  0
 19 18  1  0  0  0  0
 20 19  1  0  0  0  0
 21 19  2  0  0  0  0
 21 22  1  0  0  0  0
 21 41  1  0  0  0  0
 22 15  2  0  0  0  0
 23 22  1  0  0  0  0
 25 24  1  0  0  0  0
 25 42  1  0  0  0  0
 25 43  1  0  0  0  0
 25 44  1  0  0  0  0
 26 27  1  0  0  0  0
 27 28  1  0  0  0  0
 27 45  1  0  0  0  0
 27 46  1  0  0  0  0
 28 29  1  0  0  0  0
 28 34  1  0  0  0  0
 28 47  1  6  0  0  0
 29 30  1  0  0  0  0
 29 48  1  0  0  0  0
 29 49  1  0  0  0  0
 30 31  1  0  0  0  0
 30 32  1  0  0  0  0
 31 50  1  0  0  0  0
 31 51  1  0  0  0  0
 31 52  1  0  0  0  0
 32 33  1  0  0  0  0
 32 53  1  0  0  0  0
 32 54  1  0  0  0  0
 33 55  1  0  0  0  0
 33 56  1  0  0  0  0
 34 33  1  0  0  0  0
M  END
>  <REMARK>
 VINA RESULT:      -7.1      2.689      3.586
  6 active torsions:
  status: ('A' for Active; 'I' for Inactive)
    1  A    between atoms: O_2  and  C_3 
    2  A    between atoms: C_4  and  O_5 
    3  A    between atoms: O_5  and  C_6 
    4  A    between atoms: C_6  and  C_7 
    5  A    between atoms: C_21  and  N_22 
    6  A    between atoms: N_22  and  C_24 

>  <TORSDO>
F 6

$$$$
resistance_project/docking/8faf60323ce63d5a/P00533_T790M/docked/molecule_0012_out.pdbqt
 OpenBabel09142609553D

 56 59  0  0  1  0  0  0  0  0999 V2000
  -50.0740   -0.6360  -19.7750 C   0  0  0  0  0  0  0  0  0  0  0  0
  -50.8710    0.1520  -20.5970 C   0  0  1  0  0  0  0  0  0  0  0  0
  -51.6510    1.1510  -20.0560 C   0  0  0  0  0  0  0  0  0  0  0  0
  -51.6250    1.3520  -18.6750 C   0  0  0  0  0  0  0  0  0  0  0  0
  -52.3660    2.3110  -18.0930 N   0  0  0  0  0  0  0  0  0  0  0  0
  -52.9600    2.9050  -18.6730 H   0  0  0  0  0  0  0  0  0  0  0  0
  -52.3420    2.5060  -16.7620 C   0  0  0  0  0  0  0  0  0  0  0  0
  -51.5730    1.7450  -15.9650 N   0  0  0  0  0  0  0  0  0  0  0  0
  -51.5750    1.9150  -14.9590 H   0  0  0  0  0  0  0  0  0  0  0  0
  -50.8060    0.7710  -16.4630 C   0  0  0  0  0  0  0  0  0  0  0  0
  -50.8410    0.5810  -17.8380 C   0  0  0  0  0  0  0  0  0  0  0  0
  -50.0770   -0.4050  -18.4150 C   0  0  0  0  0  0  0  0  0  0  0  0
  -49.9740   -0.0720  -15.7130 N   0  0  0  0  0  0  0  0  0  0  0  0
  -48.9680   -0.0810  -15.8840 H   0  0  0  0  0  0  0  0  0  0  0  0
  -50.5230   -0.9030  -14.7250 C   0  0  0  0  0  0  0  0  0  0  0  0
  -50.8780   -0.4430  -13.4570 C   0  0  0  0  0  0  0  0  0  0  0  0
  -50.6860    0.8680  -13.1570 F   0  0  0  0  0  0  0  0  0  0  0  0
  -51.4190   -1.3330  -12.5260 C   0  0  0  0  0  0  0  0  0  0  0  0
  -51.6100   -2.6800  -12.8490 C   0  0  0  0  0  0  0  0  0  0  0  0
  -52.3570   -3.8940  -11.5550 Br  0  0  0  0  0  0  0  0  0  0  0  0
  -51.2540   -3.1370  -14.1190 C   0  0  0  0  0  0  0  0  0  0  0  0
  -50.7140   -2.2490  -15.0490 C   0  0  0  0  0  0  0  0  0  0  0  0
  -50.3620   -2.6920  -16.2970 F   0  0  0  0  0  0  0  0  0  0  0  0
  -49.2830   -1.6410  -20.2830 O   0  0  0  0  0  0  0  0  0  0  0  0
  -48.9190   -2.7060  -19.4250 C   0  0  0  0  0  0  0  0  0  0  0  0
  -50.8210   -0.1330  -21.9540 O   0  0  0  0  0  0  0  0  0  0  0  0
  -51.9670   -0.0470  -22.7470 C   0  0  0  0  0  0  0  0  0  0  0  0
  -51.7420    0.8190  -23.9800 C   0  0  1  0  0  0  0  0  0  0  0  0
  -50.8760    0.0190  -24.9310 C   0  0  0  0  0  0  0  0  0  0  0  0
  -51.2890   -1.3660  -24.7990 N   0  0  0  0  0  0  0  0  0  0  0  0
  -50.7400   -2.1910  -25.8560 C   0  0  0  0  0  0  0  0  0  0  0  0
  -52.7300   -1.3880  -24.7710 C   0  0  0  0  0  0  0  0  0  0  0  0
  -53.3460   -0.1410  -25.3250 C   0  0  0  0  0  0  0  0  0  0  0  0
  -52.9900    1.0000  -24.6110 O   0  0  0  0  0  0  0  0  0  0  0  0
  -51.5907    0.9376  -20.6959 H   0  0  0  0  0  0  0  0  0  0  0  0
  -52.2439    1.7402  -20.6613 H   0  0  0  0  0  0  0  0  0  0  0  0
  -53.3483    2.3859  -16.4187 H   0  0  0  0  0  0  0  0  0  0  0  0
  -51.8894    3.4715  -16.6737 H   0  0  0  0  0  0  0  0  0  0  0  0
  -49.4843   -0.9937  -17.8091 H   0  0  0  0  0  0  0  0  0  0  0  0
  -51.6810   -0.9920  -11.5879 H   0  0  0  0  0  0  0  0  0  0  0  0
  -51.3900   -4.1290  -14.3690 H   0  0  0  0  0  0  0  0  0  0  0  0
  -48.3084   -3.4027  -19.9605 H   0  0  0  0  0  0  0  0  0  0  0  0
  -49.8014   -3.2001  -19.0757 H   0  0  0  0  0  0  0  0  0  0  0  0
  -48.3719   -2.3204  -18.5902 H   0  0  0  0  0  0  0  0  0  0  0  0
  -52.2443   -1.0313  -23.0617 H   0  0  0  0  0  0  0  0  0  0  0  0
  -52.7413    0.4040  -22.1623 H   0  0  0  0  0  0  0  0  0  0  0  0
  -51.2956    1.7567  -23.7224 H   0  0  0  0  0  0  0  0  0  0  0  0
  -51.0236    0.3545  -25.9363 H   0  0  0  0  0  0  0  0  0  0  0  0
  -49.8378    0.1366  -24.7005 H   0  0  0  0  0  0  0  0  0  0  0  0
  -49.6716   -2.1383  -25.8311 H   0  0  0  0  0  0  0  0  0  0  0  0
  -51.0925   -1.8388  -26.8029 H   0  0  0  0  0  0  0  0  0  0  0  0
  -51.0505   -3.2052  -25.7146 H   0  0  0  0  0  0  0  0  0  0  0  0
  -53.0694   -2.2218  -25.3494 H   0  0  0  0  0  0  0  0  0  0  0  0
  -53.0286   -1.4640  -23.7463 H   0  0  0  0  0  0  0  0  0  0  0  0
  -54.4107   -0.2438  -25.2964 H   0  0  0  0  0  0  0  0  0  0  0  0
  -52.9855   -0.0206  -26.3252 H   0  0  0  0  0  0  0  0  0  0  0  0
  1 12  2  0  0  0  0
  2  3  1  0  0  0  0
  2  1  1  0  0  0  0
  2 35  1  1  0  0  0
  3  4  2  0  0  0  0
  3 36  1  0  0  0  0
  4  5  1  0  0  0  0
  4 11  1  0  0  0  0
  5  7  1  0  0  0  0
  6  5  1  0  0  0  0
  7  8  1  0  0  0  0
  7 37  1  0  0  0  0
  7 38  1  0  0  0  0
  8  9  1  0  0  0  0
 10  8  1  0  0  0  0
 10 13  1  0  0  0  0
 11 10  2  0  0  0  0
 12 11  1  0  0  0  0
 12 39  1  0  0  0  0
 13 15  1  0  0  0  0
 14 13  1  0  0  0  0
 15 16  1  0  0  0  0
 16 17  1  0  0  0  0
 16 18  2  0  0  0  0
 18 40  1  0  0  0  0
 19 18  1  0  0  0  0
 19 20  1  0  0  0  0
 21 19  2  0  0  0  0
 21 41  1  0  0  0  0
 22 15  2  0  0  0  0
 22 21  1  0  0  0  0
 23 22  1  0  0  0  0
 24  1  1  0  0  0  0
 24 25  1  0  0  0  0
 25 42  1  0  0  0  0
 25 43  1  0  0  0  0
 25 44  1  0  0  0  0
 26  2  1  0  0  0  0
 27 26  1  0  0  0  0
 27 45  1  0  0  0  0
 27 46  1  0  0  0  0
 28 27  1  0  0  0  0
 28 47  1  1  0  0  0
 29 30  1  0  0  0  0
 29 28  1  0  0  0  0
 29 48  1  0  0  0  0
 29 49  1  0  0  0  0
 30 32  1  0  0  0  0
 31 30  1  0  0  0  0
 31 50  1  0  0  0  0
 31 51  1  0  0  0  0
 31 52  1  0  0  0  0
 32 53  1  0  0  0  0
 32 54  1  0  0  0  0
 33 32  1  0  0  0  0
 33 34  1  0  0  0  0
 33 55  1  0  0  0  0
 33 56  1  0  0  0  0
 34 28  1  0  0  0  0
M  END
>  <REMARK>
 VINA RESULT:      -7.0      4.382      9.022
  6 active torsions:
  status: ('A' for Active; 'I' for Inactive)
    1  A    between atoms: O_2  and  C_3 
    2  A    between atoms: C_4  and  O_5 
    3  A    between atoms: O_5  and  C_6 
    4  A    between atoms: C_6  and  C_7 
    5  A    between atoms: C_21  and  N_22 
    6  A    between atoms: N_22  and  C_24 

>  <TORSDO>
F 6

$$$$
resistance_project/docking/8faf60323ce63d5a/P00533_T790M/docked/molecule_0012_out.pdbqt
 OpenBabel09142609553D

 56 59  0  0  1  0  0  0  0  0999 V2000
  -50.6320   -3.3550  -23.8060 C   0  0  0  0  0  0  0  0  0  0  0  0
  -50.1960   -2.9370  -25.0570 C   0  0  1  0  0  0  0  0  0  0  0  0
  -50.3980   -1.6350  -25.4620 C   0  0  0  0  0  0  0  0  0  0  0  0
  -51.0440   -0.7530  -24.5960 C   0  0  0  0  0  0  0  0  0  0  0  0
  -51.2670    0.5280  -24.9390 N   0  0  0  0  0  0  0  0  0  0  0  0
  -50.9570    0.8620  -25.8530 H   0  0  0  0  0  0  0  0  0  0  0  0
  -51.8910    1.3800  -24.1050 C   0  0  0  0  0  0  0  0  0  0  0  0
  -52.3130    0.9780  -22.8940 N   0  0  0  0  0  0  0  0  0  0  0  0
  -52.7840    1.6450  -22.2830 H   0  0  0  0  0  0  0  0  0  0  0  0
  -52.1310   -0.2780  -22.4760 C   0  0  0  0  0  0  0  0  0  0  0  0
  -51.4860   -1.1460  -23.3480 C   0  0  0  0  0  0  0  0  0  0  0  0
  -51.2670   -2.4510  -22.9790 C   0  0  0  0  0  0  0  0  0  0  0  0
  -52.5360   -0.7880  -21.2350 N   0  0  0  0  0  0  0  0  0  0  0  0
  -53.2570   -1.5080  -21.1890 H   0  0  0  0  0  0  0  0  0  0  0  0
  -51.9500   -0.3090  -20.0540 C   0  0  0  0  0  0  0  0  0  0  0  0
  -50.8390   -0.9080  -19.4600 C   0  0  0  0  0  0  0  0  0  0  0  0
  -50.2940   -2.0070  -20.0470 F   0  0  0  0  0  0  0  0  0  0  0  0
  -50.3120   -0.3730  -18.2820 C   0  0  0  0  0  0  0  0  0  0  0  0
  -50.8830    0.7570  -17.6900 C   0  0  0  0  0  0  0  0  0  0  0  0
  -50.1440    1.4830  -16.0670 Br  0  0  0  0  0  0  0  0  0  0  0  0
  -51.9940    1.3550  -18.2860 C   0  0  0  0  0  0  0  0  0  0  0  0
  -52.5220    0.8210  -19.4620 C   0  0  0  0  0  0  0  0  0  0  0  0
  -53.6120    1.4030  -20.0520 F   0  0  0  0  0  0  0  0  0  0  0  0
  -50.4470   -4.6480  -23.3700 O   0  0  0  0  0  0  0  0  0  0  0  0
  -50.3110   -4.8730  -21.9810 C   0  0  0  0  0  0  0  0  0  0  0  0
  -49.5650   -3.8950  -25.8380 O   0  0  0  0  0  0  0  0  0  0  0  0
  -48.2350   -3.7360  -26.2320 C   0  0  0  0  0  0  0  0  0  0  0  0
  -47.3870   -4.9510  -25.8770 C   0  0  1  0  0  0  0  0  0  0  0  0
  -45.9430   -4.5760  -26.1390 C   0  0  0  0  0  0  0  0  0  0  0  0
  -45.8080   -3.1780  -25.7750 N   0  0  0  0  0  0  0  0  0  0  0  0
  -44.4180   -2.7750  -25.7060 C   0  0  0  0  0  0  0  0  0  0  0  0
  -46.5020   -2.9860  -24.5260 C   0  0  0  0  0  0  0  0  0  0  0  0
  -46.7310   -4.2640  -23.7800 C   0  0  0  0  0  0  0  0  0  0  0  0
  -47.5120   -5.1710  -24.4900 O   0  0  0  0  0  0  0  0  0  0  0  0
  -50.1010   -2.1611  -25.7877 H   0  0  0  0  0  0  0  0  0  0  0  0
  -50.0767   -1.3183  -26.3902 H   0  0  0  0  0  0  0  0  0  0  0  0
  -52.7551    1.7371  -24.6253 H   0  0  0  0  0  0  0  0  0  0  0  0
  -51.1198    2.0817  -23.8647 H   0  0  0  0  0  0  0  0  0  0  0  0
  -51.5887   -2.7665  -22.0506 H   0  0  0  0  0  0  0  0  0  0  0  0
  -49.4906   -0.8178  -17.8433 H   0  0  0  0  0  0  0  0  0  0  0  0
  -52.4240    2.1899  -17.8582 H   0  0  0  0  0  0  0  0  0  0  0  0
  -50.1750   -5.9189  -21.8007 H   0  0  0  0  0  0  0  0  0  0  0  0
  -51.1927   -4.5359  -21.4771 H   0  0  0  0  0  0  0  0  0  0  0  0
  -49.4624   -4.3345  -21.6139 H   0  0  0  0  0  0  0  0  0  0  0  0
  -48.2034   -3.5900  -27.2915 H   0  0  0  0  0  0  0  0  0  0  0  0
  -47.8349   -2.8899  -25.7133 H   0  0  0  0  0  0  0  0  0  0  0  0
  -47.6856   -5.8125  -26.4369 H   0  0  0  0  0  0  0  0  0  0  0  0
  -45.7074   -4.7130  -27.1737 H   0  0  0  0  0  0  0  0  0  0  0  0
  -45.2748   -5.1898  -25.5719 H   0  0  0  0  0  0  0  0  0  0  0  0
  -43.9519   -2.9378  -26.6553 H   0  0  0  0  0  0  0  0  0  0  0  0
  -43.9158   -3.3527  -24.9584 H   0  0  0  0  0  0  0  0  0  0  0  0
  -44.3597   -1.7369  -25.4534 H   0  0  0  0  0  0  0  0  0  0  0  0
  -47.4510   -2.5354  -24.7292 H   0  0  0  0  0  0  0  0  0  0  0  0
  -45.8867   -2.3629  -23.9111 H   0  0  0  0  0  0  0  0  0  0  0  0
  -47.2235   -4.0377  -22.8575 H   0  0  0  0  0  0  0  0  0  0  0  0
  -45.7758   -4.7185  -23.6192 H   0  0  0  0  0  0  0  0  0  0  0  0
  1 24  1  0  0  0  0
  1 12  2  0  0  0  0
  2  1  1  0  0  0  0
  2 35  1  6  0  0  0
  3  2  1  0  0  0  0
  3  4  2  0  0  0  0
  3 36  1  0  0  0  0
  4 11  1  0  0  0  0
  5  4  1  0  0  0  0
  5  7  1  0  0  0  0
  6  5  1  0  0  0  0
  7  8  1  0  0  0  0
  7 37  1  0  0  0  0
  7 38  1  0  0  0  0
  8 10  1  0  0  0  0
  8  9  1  0  0  0  0
 10 13  1  0  0  0  0
 11 12  1  0  0  0  0
 11 10  2  0  0  0  0
 12 39  1  0  0  0  0
 13 14  1  0  0  0  0
 13 15  1  0  0  0  0
 15 22  2  0  0  0  0
 15 16  1  0  0  0  0
 16 18  2  0  0  0  0
 17 16  1  0  0  0  0
 18 19  1  0  0  0  0
 18 40  1  0  0  0  0
 19 20  1  0  0  0  0
 21 19  2  0  0  0  0
 21 41  1  0  0  0  0
 22 21  1  0  0  0  0
 23 22  1  0  0  0  0
 24 25  1  0  0  0  0
 25 42  1  0  0  0  0
 25 43  1  0  0  0  0
 25 44  1  0  0  0  0
 26  2  1  0  0  0  0
 27 28  1  0  0  0  0
 27 26  1  0  0  0  0
 27 45  1  0  0  0  0
 27 46  1  0  0  0  0
 28 34  1  0  0  0  0
 28 47  1  6  0  0  0
 29 28  1  0  0  0  0
 29 30  1  0  0  0  0
 29 48  1  0  0  0  0
 29 49  1  0  0  0  0
 30 31  1  0  0  0  0
 30 32  1  0  0  0  0
 31 50  1  0  0  0  0
 31 51  1  0  0  0  0
 31 52  1  0  0  0  0
 32 33  1  0  0  0  0
 32 53  1  0  0  0  0
 32 54  1  0  0  0  0
 33 55  1  0  0  0  0
 33 56  1  0  0  0  0
 34 33  1  0  0  0  0
M  END
>  <REMARK>
 VINA RESULT:      -7.0      4.763      8.844
  6 active torsions:
  status: ('A' for Active; 'I' for Inactive)
    1  A    between atoms: O_2  and  C_3 
    2  A    between atoms: C_4  and  O_5 
    3  A    between atoms: O_5  and  C_6 
    4  A    between atoms: C_6  and  C_7 
    5  A    between atoms: C_21  and  N_22 
    6  A    between atoms: N_22  and  C_24 

>  <TORSDO>
F 6

$$$$
resistance_project/docking/8faf60323ce63d5a/P00533_T790M/docked/molecule_0012_out.pdbqt
 OpenBabel09142609553D

 56 59  0  0  1  0  0  0  0  0999 V2000
  -50.4180    0.5010  -16.8360 C   0  0  0  0  0  0  0  0  0  0  0  0
  -51.3890    1.2920  -16.2350 C   0  0  1  0  0  0  0  0  0  0  0  0
  -52.3100    1.9660  -17.0070 C   0  0  0  0  0  0  0  0  0  0  0  0
  -52.2470    1.8400  -18.3960 C   0  0  0  0  0  0  0  0  0  0  0  0
  -53.1190    2.4750  -19.1970 N   0  0  0  0  0  0  0  0  0  0  0  0
  -53.8440    3.0630  -18.7820 H   0  0  0  0  0  0  0  0  0  0  0  0
  -53.0590    2.3540  -20.5360 C   0  0  0  0  0  0  0  0  0  0  0  0
  -52.1200    1.5900  -21.1200 N   0  0  0  0  0  0  0  0  0  0  0  0
  -52.0980    1.5170  -22.1370 H   0  0  0  0  0  0  0  0  0  0  0  0
  -51.2160    0.9250  -20.3960 C   0  0  0  0  0  0  0  0  0  0  0  0
  -51.2900    1.0600  -19.0160 C   0  0  0  0  0  0  0  0  0  0  0  0
  -50.3890    0.4020  -18.2130 C   0  0  0  0  0  0  0  0  0  0  0  0
  -50.2020    0.1070  -20.9140 N   0  0  0  0  0  0  0  0  0  0  0  0
  -49.2230    0.3410  -20.7510 H   0  0  0  0  0  0  0  0  0  0  0  0
  -50.5340   -1.0350  -21.6580 C   0  0  0  0  0  0  0  0  0  0  0  0
  -50.8670   -0.9890  -23.0120 C   0  0  0  0  0  0  0  0  0  0  0  0
  -50.8740    0.2130  -23.6460 F   0  0  0  0  0  0  0  0  0  0  0  0
  -51.1870   -2.1710  -23.6850 C   0  0  0  0  0  0  0  0  0  0  0  0
  -51.1780   -3.4000  -23.0190 C   0  0  0  0  0  0  0  0  0  0  0  0
  -51.6200   -5.0200  -23.9610 Br  0  0  0  0  0  0  0  0  0  0  0  0
  -50.8430   -3.4430  -21.6650 C   0  0  0  0  0  0  0  0  0  0  0  0
  -50.5240   -2.2640  -20.9920 C   0  0  0  0  0  0  0  0  0  0  0  0
  -50.1950   -2.2990  -19.6620 F   0  0  0  0  0  0  0  0  0  0  0  0
  -49.4830   -0.1860  -16.0950 O   0  0  0  0  0  0  0  0  0  0  0  0
  -49.6510   -1.5810  -15.9320 C   0  0  0  0  0  0  0  0  0  0  0  0
  -51.3620    1.3470  -14.8490 O   0  0  0  0  0  0  0  0  0  0  0  0
  -50.7680    2.4240  -14.1860 C   0  0  0  0  0  0  0  0  0  0  0  0
  -50.8390    2.2680  -12.6720 C   0  0  1  0  0  0  0  0  0  0  0  0
  -49.7680    1.2710  -12.2800 C   0  0  0  0  0  0  0  0  0  0  0  0
  -48.6420    1.5040  -13.1640 N   0  0  0  0  0  0  0  0  0  0  0  0
  -47.4520    0.8140  -12.7100 C   0  0  0  0  0  0  0  0  0  0  0  0
  -48.4530    2.9300  -13.2590 C   0  0  0  0  0  0  0  0  0  0  0  0
  -49.1020    3.6820  -12.1380 C   0  0  0  0  0  0  0  0  0  0  0  0
  -50.4820    3.5040  -12.0970 O   0  0  0  0  0  0  0  0  0  0  0  0
  -52.2161    1.9634  -16.3358 H   0  0  0  0  0  0  0  0  0  0  0  0
  -53.0343    2.5541  -16.5659 H   0  0  0  0  0  0  0  0  0  0  0  0
  -54.0055    1.9655  -20.8492 H   0  0  0  0  0  0  0  0  0  0  0  0
  -52.7887    3.3406  -20.8499 H   0  0  0  0  0  0  0  0  0  0  0  0
  -49.6655   -0.1866  -18.6547 H   0  0  0  0  0  0  0  0  0  0  0  0
  -51.4331   -2.1362  -24.6866 H   0  0  0  0  0  0  0  0  0  0  0  0
  -50.8314   -4.3447  -21.1632 H   0  0  0  0  0  0  0  0  0  0  0  0
  -48.8511   -1.9695  -15.3369 H   0  0  0  0  0  0  0  0  0  0  0  0
  -49.6450   -2.0554  -16.8910 H   0  0  0  0  0  0  0  0  0  0  0  0
  -50.5840   -1.7734  -15.4447 H   0  0  0  0  0  0  0  0  0  0  0  0
  -51.2747    3.3241  -14.4652 H   0  0  0  0  0  0  0  0  0  0  0  0
  -49.7364    2.4588  -14.4678 H   0  0  0  0  0  0  0  0  0  0  0  0
  -51.8129    1.9572  -12.3559 H   0  0  0  0  0  0  0  0  0  0  0  0
  -49.4761    1.4238  -11.2620 H   0  0  0  0  0  0  0  0  0  0  0  0
  -50.1255    0.2662  -12.3669 H   0  0  0  0  0  0  0  0  0  0  0  0
  -46.6462    1.0101  -13.3861 H   0  0  0  0  0  0  0  0  0  0  0  0
  -47.6411   -0.2386  -12.6762 H   0  0  0  0  0  0  0  0  0  0  0  0
  -47.1897    1.1609  -11.7324 H   0  0  0  0  0  0  0  0  0  0  0  0
  -48.8712    3.2686  -14.1839 H   0  0  0  0  0  0  0  0  0  0  0  0
  -47.4011    3.1180  -13.2039 H   0  0  0  0  0  0  0  0  0  0  0  0
  -48.8953    4.7246  -12.2609 H   0  0  0  0  0  0  0  0  0  0  0  0
  -48.7009    3.3033  -11.2212 H   0  0  0  0  0  0  0  0  0  0  0  0
  1  2  1  0  0  0  0
  1 24  1  0  0  0  0
  2 26  1  0  0  0  0
  2 35  1  6  0  0  0
  3  2  1  0  0  0  0
  3 36  1  0  0  0  0
  4  3  2  0  0  0  0
  5  6  1  0  0  0  0
  5  4  1  0  0  0  0
  7  5  1  0  0  0  0
  7 37  1  0  0  0  0
  7 38  1  0  0  0  0
  8  7  1  0  0  0  0
  8 10  1  0  0  0  0
  9  8  1  0  0  0  0
 10 11  2  0  0  0  0
 11  4  1  0  0  0  0
 11 12  1  0  0  0  0
 12  1  2  0  0  0  0
 12 39  1  0  0  0  0
 13 14  1  0  0  0  0
 13 10  1  0  0  0  0
 15 22  1  0  0  0  0
 15 13  1  0  0  0  0
 16 15  2  0  0  0  0
 17 16  1  0  0  0  0
 18 19  2  0  0  0  0
 18 16  1  0  0  0  0
 18 40  1  0  0  0  0
 19 21  1  0  0  0  0
 20 19  1  0  0  0  0
 21 22  2  0  0  0  0
 21 41  1  0  0  0  0
 22 23  1  0  0  0  0
 24 25  1  0  0  0  0
 25 42  1  0  0  0  0
 25 43  1  0  0  0  0
 25 44  1  0  0  0  0
 26 27  1  0  0  0  0
 27 28  1  0  0  0  0
 27 45  1  0  0  0  0
 27 46  1  0  0  0  0
 28 29  1  0  0  0  0
 28 34  1  0  0  0  0
 28 47  1  1  0  0  0
 29 48  1  0  0  0  0
 29 49  1  0  0  0  0
 30 31  1  0  0  0  0
 30 29  1  0  0  0  0
 31 50  1  0  0  0  0
 31 51  1  0  0  0  0
 31 52  1  0  0  0  0
 32 30  1  0  0  0  0
 32 33  1  0  0  0  0
 32 53  1  0  0  0  0
 32 54  1  0  0  0  0
 33 34  1  0  0  0  0
 33 55  1  0  0  0  0
 33 56  1  0  0  0  0
M  END
>  <REMARK>
 VINA RESULT:      -6.8      2.238      2.857
  6 active torsions:
  status: ('A' for Active; 'I' for Inactive)
    1  A    between atoms: O_2  and  C_3 
    2  A    between atoms: C_4  and  O_5 
    3  A    between atoms: O_5  and  C_6 
    4  A    between atoms: C_6  and  C_7 
    5  A    between atoms: C_21  and  N_22 
    6  A    between atoms: N_22  and  C_24 

>  <TORSDO>
F 6

$$$$
