resistance_project/docking/8faf60323ce63d5a/P00533_T790M/docked/molecule_0004_out.pdbqt
 OpenBabel09142609533D

 84 88  0  0  1  0  0  0  0  0999 V2000
  -51.9940    1.9300  -15.7580 C   0  0  1  0  0  0  0  0  0  0  0  0
  -51.5970    3.1870  -15.4470 N   0  0  0  0  0  0  0  0  0  0  0  0
  -51.6030    3.9300  -16.1450 H   0  0  0  0  0  0  0  0  0  0  0  0
  -51.1970    3.4230  -14.1880 C   0  0  0  0  0  0  0  0  0  0  0  0
  -51.1900    2.4220  -13.2500 C   0  0  0  0  0  0  0  0  0  0  0  0
  -50.6260    2.8360  -11.6420 Cl  0  0  0  0  0  0  0  0  0  0  0  0
  -51.6000    1.1220  -13.5740 C   0  0  0  0  0  0  0  0  0  0  0  0
  -51.9890    0.9480  -14.8460 N   0  0  0  0  0  0  0  0  0  0  0  0
  -52.2960    0.0190  -15.1350 H   0  0  0  0  0  0  0  0  0  0  0  0
  -52.4550    1.5750  -17.0660 N   0  0  0  0  0  0  0  0  0  0  0  0
  -53.4290    1.7530  -17.3130 H   0  0  0  0  0  0  0  0  0  0  0  0
  -51.5950    0.9830  -18.0320 C   0  0  0  0  0  0  0  0  0  0  0  0
  -51.9370    0.9800  -19.3610 C   0  0  0  0  0  0  0  0  0  0  0  0
  -51.0730    0.4170  -20.2850 C   0  0  0  0  0  0  0  0  0  0  0  0
  -49.8640   -0.1410  -19.8510 C   0  0  0  0  0  0  0  0  0  0  0  0
  -49.5120   -0.1420  -18.5070 C   0  0  0  0  0  0  0  0  0  0  0  0
  -50.3910    0.4280  -17.5790 C   0  0  0  0  0  0  0  0  0  0  0  0
  -53.1190    1.5200  -19.8370 O   0  0  0  0  0  0  0  0  0  0  0  0
  -53.5000    1.4810  -21.1950 C   0  0  0  0  0  0  0  0  0  0  0  0
  -49.0170   -0.6890  -20.8630 N   0  0  0  0  0  0  0  0  0  0  0  0
  -47.5790   -0.7960  -20.7080 C   0  0  0  0  0  0  0  0  0  0  0  0
  -47.1610   -2.1110  -21.3150 C   0  0  0  0  0  0  0  0  0  0  0  0
  -48.2390   -3.1090  -21.4590 C   0  0  2  0  0  0  0  0  0  0  0  0
  -49.5130   -2.6630  -22.0510 C   0  0  0  0  0  0  0  0  0  0  0  0
  -49.6940   -1.1630  -22.0870 C   0  0  0  0  0  0  0  0  0  0  0  0
  -48.2220   -4.2480  -20.6380 N   0  0  0  0  0  0  0  0  0  0  0  0
  -49.3690   -4.5080  -19.8380 C   0  0  0  0  0  0  0  0  0  0  0  0
  -49.2950   -3.9070  -18.4510 C   0  0  0  0  0  0  0  0  0  0  0  0
  -47.9360   -3.3810  -18.2850 N   0  0  0  0  0  0  0  0  0  0  0  0
  -47.7600   -3.0130  -16.9120 C   0  0  0  0  0  0  0  0  0  0  0  0
  -47.0420   -4.5140  -18.5780 C   0  0  0  0  0  0  0  0  0  0  0  0
  -46.9560   -4.5820  -20.0890 C   0  0  0  0  0  0  0  0  0  0  0  0
  -51.5460    0.1660  -12.5730 N   0  0  0  0  0  0  0  0  0  0  0  0
  -50.6060   -0.1690  -12.3610 H   0  0  0  0  0  0  0  0  0  0  0  0
  -52.5620   -0.4260  -11.7990 C   0  0  0  0  0  0  0  0  0  0  0  0
  -53.4170    0.5170  -11.1860 C   0  0  0  0  0  0  0  0  0  0  0  0
  -54.4360    0.0770  -10.4200 C   0  0  0  0  0  0  0  0  0  0  0  0
  -54.6190   -1.2670  -10.2530 C   0  0  0  0  0  0  0  0  0  0  0  0
  -53.8070   -2.1850  -10.8370 C   0  0  0  0  0  0  0  0  0  0  0  0
  -52.7500   -1.7750  -11.6350 C   0  0  0  0  0  0  0  0  0  0  0  0
  -51.8380   -3.0180  -12.4260 S   0  0  0  0  0  0  0  0  0  0  0  0
  -51.4800   -2.5340  -13.8320 O   0  0  0  0  0  0  0  0  0  0  0  0
  -52.6150   -4.2700  -12.5130 O   0  0  0  0  0  0  0  0  0  0  0  0
  -50.3340   -3.3160  -11.5480 C   0  0  0  0  0  0  0  0  0  0  0  0
  -50.4920   -4.5120  -10.6620 C   0  0  0  0  0  0  0  0  0  0  0  0
  -49.1840   -3.5320  -12.5150 C   0  0  0  0  0  0  0  0  0  0  0  0
  -51.8334    4.1936  -13.8059 H   0  0  0  0  0  0  0  0  0  0  0  0
  -51.3184    0.4086  -21.2874 H   0  0  0  0  0  0  0  0  0  0  0  0
  -48.6183   -0.5557  -18.1985 H   0  0  0  0  0  0  0  0  0  0  0  0
  -50.1554    0.4393  -16.5743 H   0  0  0  0  0  0  0  0  0  0  0  0
  -54.4489    1.9612  -21.3132 H   0  0  0  0  0  0  0  0  0  0  0  0
  -53.5731    0.4629  -21.5158 H   0  0  0  0  0  0  0  0  0  0  0  0
  -52.7670    1.9894  -21.7858 H   0  0  0  0  0  0  0  0  0  0  0  0
  -47.0946    0.0121  -21.2151 H   0  0  0  0  0  0  0  0  0  0  0  0
  -47.3042   -0.7505  -19.6749 H   0  0  0  0  0  0  0  0  0  0  0  0
  -46.7605   -1.9140  -22.2875 H   0  0  0  0  0  0  0  0  0  0  0  0
  -46.4507   -2.5375  -20.6379 H   0  0  0  0  0  0  0  0  0  0  0  0
  -47.8649   -3.6229  -22.3197 H   0  0  0  0  0  0  0  0  0  0  0  0
  -49.5621   -3.0301  -23.0549 H   0  0  0  0  0  0  0  0  0  0  0  0
  -50.2914   -3.0494  -21.4267 H   0  0  0  0  0  0  0  0  0  0  0  0
  -50.7324   -0.9052  -22.0708 H   0  0  0  0  0  0  0  0  0  0  0  0
  -49.2924   -0.7221  -22.9754 H   0  0  0  0  0  0  0  0  0  0  0  0
  -49.4795   -5.5678  -19.7410 H   0  0  0  0  0  0  0  0  0  0  0  0
  -50.2025   -4.0529  -20.3309 H   0  0  0  0  0  0  0  0  0  0  0  0
  -49.4913   -4.6575  -17.7141 H   0  0  0  0  0  0  0  0  0  0  0  0
  -50.0225   -3.1316  -18.3309 H   0  0  0  0  0  0  0  0  0  0  0  0
  -46.7725   -2.6261  -16.7702 H   0  0  0  0  0  0  0  0  0  0  0  0
  -47.8984   -3.8737  -16.2915 H   0  0  0  0  0  0  0  0  0  0  0  0
  -48.4776   -2.2643  -16.6486 H   0  0  0  0  0  0  0  0  0  0  0  0
  -46.0735   -4.3450  -18.1556 H   0  0  0  0  0  0  0  0  0  0  0  0
  -47.4095   -5.4278  -18.1599 H   0  0  0  0  0  0  0  0  0  0  0  0
  -46.2192   -3.8892  -20.4382 H   0  0  0  0  0  0  0  0  0  0  0  0
  -46.6792   -5.5702  -20.3919 H   0  0  0  0  0  0  0  0  0  0  0  0
  -53.2639    1.5284  -11.3225 H   0  0  0  0  0  0  0  0  0  0  0  0
  -55.0722    0.7495   -9.9638 H   0  0  0  0  0  0  0  0  0  0  0  0
  -55.4001   -1.5949   -9.6636 H   0  0  0  0  0  0  0  0  0  0  0  0
  -53.9772   -3.1917  -10.6864 H   0  0  0  0  0  0  0  0  0  0  0  0
  -50.1130   -2.4589  -10.9468 H   0  0  0  0  0  0  0  0  0  0  0  0
  -50.7132   -5.3717  -11.2594 H   0  0  0  0  0  0  0  0  0  0  0  0
  -51.2920   -4.3417   -9.9722 H   0  0  0  0  0  0  0  0  0  0  0  0
  -49.5838   -4.6776  -10.1211 H   0  0  0  0  0  0  0  0  0  0  0  0
  -49.3874   -4.3866  -13.1259 H   0  0  0  0  0  0  0  0  0  0  0  0
  -48.2808   -3.6939  -11.9646 H   0  0  0  0  0  0  0  0  0  0  0  0
  -49.0731   -2.6678  -13.1361 H   0  0  0  0  0  0  0  0  0  0  0  0
  1 10  1  1  0  0  0
  1  2  1  0  0  0  0
  1  8  1  0  0  0  0
  2  4  1  0  0  0  0
  3  2  1  0  0  0  0
  4  5  1  0  0  0  0
  4 47  1  0  0  0  0
  5  6  1  0  0  0  0
  7  5  2  0  0  0  0
  7 33  1  0  0  0  0
  8  7  1  0  0  0  0
  9  8  1  0  0  0  0
 11 10  1  0  0  0  0
 12 17  1  0  0  0  0
 12 10  1  0  0  0  0
 13 12  2  0  0  0  0
 14 15  2  0  0  0  0
 14 13  1  0  0  0  0
 14 48  1  0  0  0  0
 15 16  1  0  0  0  0
 16 17  2  0  0  0  0
 16 49  1  0  0  0  0
 17 50  1  0  0  0  0
 18 13  1  0  0  0  0
 19 18  1  0  0  0  0
 19 51  1  0  0  0  0
 19 52  1  0  0  0  0
 19 53  1  0  0  0  0
 20 21  1  0  0  0  0
 20 15  1  0  0  0  0
 21 54  1  0  0  0  0
 21 55  1  0  0  0  0
 22 21  1  0  0  0  0
 22 56  1  0  0  0  0
 22 57  1  0  0  0  0
 23 22  1  0  0  0  0
 23 26  1  0  0  0  0
 23 58  1  6  0  0  0
 24 23  1  0  0  0  0
 24 59  1  0  0  0  0
 24 60  1  0  0  0  0
 25 24  1  0  0  0  0
 25 20  1  0  0  0  0
 25 61  1  0  0  0  0
 25 62  1  0  0  0  0
 26 32  1  0  0  0  0
 26 27  1  0  0  0  0
 27 28  1  0  0  0  0
 27 63  1  0  0  0  0
 27 64  1  0  0  0  0
 28 29  1  0  0  0  0
 28 65  1  0  0  0  0
 28 66  1  0  0  0  0
 29 30  1  0  0  0  0
 30 67  1  0  0  0  0
 30 68  1  0  0  0  0
 30 69  1  0  0  0  0
 31 29  1  0  0  0  0
 31 70  1  0  0  0  0
 31 71  1  0  0  0  0
 32 31  1  0  0  0  0
 32 72  1  0  0  0  0
 32 73  1  0  0  0  0
 33 34  1  0  0  0  0
 33 35  1  0  0  0  0
 35 40  2  0  0  0  0
 35 36  1  0  0  0  0
 36 37  2  0  0  0  0
 36 74  1  0  0  0  0
 37 38  1  0  0  0  0
 37 75  1  0  0  0  0
 38 76  1  0  0  0  0
 39 38  2  0  0  0  0
 39 77  1  0  0  0  0
 40 39  1  0  0  0  0
 41 40  1  0  0  0  0
 41 44  1  0  0  0  0
 42 41  2  0  0  0  0
 43 41  2  0  0  0  0
 44 45  1  0  0  0  0
 44 78  1  0  0  0  0
 45 79  1  0  0  0  0
 45 80  1  0  0  0  0
 45 81  1  0  0  0  0
 46 44  1  0  0  0  0
 46 82  1  0  0  0  0
 46 83  1  0  0  0  0
 46 84  1  0  0  0  0
M  END
>  <MODEL>
1

>  <REMARK>
 VINA RESULT:      -8.5      0.000      0.000
  9 active torsions:
  status: ('A' for Active; 'I' for Inactive)
    1  A    between atoms: O_2  and  C_3 
    2  A    between atoms: C_4  and  N_5 
    3  A    between atoms: N_5  and  C_7 
    4  A    between atoms: C_13  and  N_14 
    5  A    between atoms: N_14  and  C_16 
    6  A    between atoms: C_21  and  S_22 
    7  A    between atoms: S_22  and  C_25 
    8  A    between atoms: C_32  and  N_33 
    9  A    between atoms: C_36  and  N_37 

>  <TORSDO>
F 9

$$$$
resistance_project/docking/8faf60323ce63d5a/P00533_T790M/docked/molecule_0004_out.pdbqt
 OpenBabel09142609533D

 84 88  0  0  1  0  0  0  0  0999 V2000
  -51.9880    1.9510  -15.7460 C   0  0  1  0  0  0  0  0  0  0  0  0
  -51.5750    3.2050  -15.4470 N   0  0  0  0  0  0  0  0  0  0  0  0
  -51.5880    3.9460  -16.1480 H   0  0  0  0  0  0  0  0  0  0  0  0
  -51.1510    3.4430  -14.1960 C   0  0  0  0  0  0  0  0  0  0  0  0
  -51.1350    2.4470  -13.2540 C   0  0  0  0  0  0  0  0  0  0  0  0
  -50.5390    2.8630  -11.6580 Cl  0  0  0  0  0  0  0  0  0  0  0  0
  -51.5610    1.1480  -13.5650 C   0  0  0  0  0  0  0  0  0  0  0  0
  -51.9740    0.9720  -14.8290 N   0  0  0  0  0  0  0  0  0  0  0  0
  -52.2940    0.0450  -15.1090 H   0  0  0  0  0  0  0  0  0  0  0  0
  -52.4750    1.5940  -17.0440 N   0  0  0  0  0  0  0  0  0  0  0  0
  -53.4490    1.7870  -17.2770 H   0  0  0  0  0  0  0  0  0  0  0  0
  -51.6410    0.9790  -18.0170 C   0  0  0  0  0  0  0  0  0  0  0  0
  -52.0090    0.9620  -19.3400 C   0  0  0  0  0  0  0  0  0  0  0  0
  -51.1690    0.3760  -20.2720 C   0  0  0  0  0  0  0  0  0  0  0  0
  -49.9580   -0.1910  -19.8530 C   0  0  0  0  0  0  0  0  0  0  0  0
  -49.5810   -0.1780  -18.5160 C   0  0  0  0  0  0  0  0  0  0  0  0
  -50.4350    0.4160  -17.5800 C   0  0  0  0  0  0  0  0  0  0  0  0
  -53.1930    1.5100  -19.8000 O   0  0  0  0  0  0  0  0  0  0  0  0
  -53.6080    1.4410  -21.1470 C   0  0  0  0  0  0  0  0  0  0  0  0
  -49.1370   -0.7620  -20.8730 N   0  0  0  0  0  0  0  0  0  0  0  0
  -47.7030   -0.9260  -20.7260 C   0  0  0  0  0  0  0  0  0  0  0  0
  -47.3400   -2.2510  -21.3460 C   0  0  0  0  0  0  0  0  0  0  0  0
  -48.4560   -3.2050  -21.4940 C   0  0  2  0  0  0  0  0  0  0  0  0
  -49.7140   -2.7050  -22.0760 C   0  0  0  0  0  0  0  0  0  0  0  0
  -49.8370   -1.1990  -22.0990 C   0  0  0  0  0  0  0  0  0  0  0  0
  -48.4810   -4.3510  -20.6830 N   0  0  0  0  0  0  0  0  0  0  0  0
  -47.2490   -5.0190  -20.4380 C   0  0  0  0  0  0  0  0  0  0  0  0
  -46.9470   -6.1240  -21.4290 C   0  0  0  0  0  0  0  0  0  0  0  0
  -48.1460   -6.2980  -22.2550 N   0  0  0  0  0  0  0  0  0  0  0  0
  -47.9800   -7.4810  -23.0460 C   0  0  0  0  0  0  0  0  0  0  0  0
  -49.2440   -6.5290  -21.3020 C   0  0  0  0  0  0  0  0  0  0  0  0
  -49.6450   -5.1550  -20.8040 C   0  0  0  0  0  0  0  0  0  0  0  0
  -51.4960    0.1960  -12.5620 N   0  0  0  0  0  0  0  0  0  0  0  0
  -50.5510   -0.1120  -12.3340 H   0  0  0  0  0  0  0  0  0  0  0  0
  -52.5080   -0.4230  -11.8030 C   0  0  0  0  0  0  0  0  0  0  0  0
  -53.3650    0.4980  -11.1590 C   0  0  0  0  0  0  0  0  0  0  0  0
  -54.3790    0.0320  -10.4030 C   0  0  0  0  0  0  0  0  0  0  0  0
  -54.5570   -1.3180  -10.2760 C   0  0  0  0  0  0  0  0  0  0  0  0
  -53.7430   -2.2150  -10.8910 C   0  0  0  0  0  0  0  0  0  0  0  0
  -52.6900   -1.7770  -11.6780 C   0  0  0  0  0  0  0  0  0  0  0  0
  -51.7760   -2.9920  -12.5100 S   0  0  0  0  0  0  0  0  0  0  0  0
  -51.3600   -2.4360  -13.8720 O   0  0  0  0  0  0  0  0  0  0  0  0
  -52.5750   -4.2200  -12.6960 O   0  0  0  0  0  0  0  0  0  0  0  0
  -50.3100   -3.3730  -11.6010 C   0  0  0  0  0  0  0  0  0  0  0  0
  -50.4820   -4.6750  -10.8820 C   0  0  0  0  0  0  0  0  0  0  0  0
  -49.1100   -3.4440  -12.5280 C   0  0  0  0  0  0  0  0  0  0  0  0
  -51.7746    4.2203  -13.8062 H   0  0  0  0  0  0  0  0  0  0  0  0
  -51.4333    0.3570  -21.2694 H   0  0  0  0  0  0  0  0  0  0  0  0
  -48.6870   -0.5989  -18.2183 H   0  0  0  0  0  0  0  0  0  0  0  0
  -50.1796    0.4390  -16.5804 H   0  0  0  0  0  0  0  0  0  0  0  0
  -54.5512    1.9344  -21.2553 H   0  0  0  0  0  0  0  0  0  0  0  0
  -53.7062    0.4160  -21.4379 H   0  0  0  0  0  0  0  0  0  0  0  0
  -52.8813    1.9203  -21.7691 H   0  0  0  0  0  0  0  0  0  0  0  0
  -47.1899   -0.1331  -21.2289 H   0  0  0  0  0  0  0  0  0  0  0  0
  -47.4215   -0.8997  -19.6940 H   0  0  0  0  0  0  0  0  0  0  0  0
  -46.9362   -2.0613  -22.3185 H   0  0  0  0  0  0  0  0  0  0  0  0
  -46.6447   -2.7109  -20.6752 H   0  0  0  0  0  0  0  0  0  0  0  0
  -48.1031   -3.7246  -22.3603 H   0  0  0  0  0  0  0  0  0  0  0  0
  -49.7818   -3.0616  -23.0826 H   0  0  0  0  0  0  0  0  0  0  0  0
  -50.5039   -3.0660  -21.4510 H   0  0  0  0  0  0  0  0  0  0  0  0
  -50.8645   -0.9013  -22.0764 H   0  0  0  0  0  0  0  0  0  0  0  0
  -49.4222   -0.7663  -22.9854 H   0  0  0  0  0  0  0  0  0  0  0  0
  -46.4592   -4.2986  -20.4845 H   0  0  0  0  0  0  0  0  0  0  0  0
  -47.3283   -5.4769  -19.4742 H   0  0  0  0  0  0  0  0  0  0  0  0
  -46.1145   -5.8499  -22.0427 H   0  0  0  0  0  0  0  0  0  0  0  0
  -46.6964   -7.0329  -20.9231 H   0  0  0  0  0  0  0  0  0  0  0  0
  -47.1848   -7.3330  -23.7465 H   0  0  0  0  0  0  0  0  0  0  0  0
  -48.8872   -7.6868  -23.5746 H   0  0  0  0  0  0  0  0  0  0  0  0
  -47.7440   -8.3067  -22.4077 H   0  0  0  0  0  0  0  0  0  0  0  0
  -48.9107   -7.1389  -20.4884 H   0  0  0  0  0  0  0  0  0  0  0  0
  -50.0651   -7.0403  -21.7594 H   0  0  0  0  0  0  0  0  0  0  0  0
  -50.1208   -5.2437  -19.8497 H   0  0  0  0  0  0  0  0  0  0  0  0
  -50.3265   -4.7040  -21.4948 H   0  0  0  0  0  0  0  0  0  0  0  0
  -53.2164    1.5136  -11.2661 H   0  0  0  0  0  0  0  0  0  0  0  0
  -55.0155    0.6882   -9.9242 H   0  0  0  0  0  0  0  0  0  0  0  0
  -55.3348   -1.6665   -9.6942 H   0  0  0  0  0  0  0  0  0  0  0  0
  -53.9095   -3.2265  -10.7716 H   0  0  0  0  0  0  0  0  0  0  0  0
  -50.1389   -2.5959  -10.8856 H   0  0  0  0  0  0  0  0  0  0  0  0
  -50.6534   -5.4555  -11.5936 H   0  0  0  0  0  0  0  0  0  0  0  0
  -51.3182   -4.6079  -10.2178 H   0  0  0  0  0  0  0  0  0  0  0  0
  -49.5973   -4.8921  -10.3207 H   0  0  0  0  0  0  0  0  0  0  0  0
  -49.2635   -4.2172  -13.2516 H   0  0  0  0  0  0  0  0  0  0  0  0
  -48.2307   -3.6590  -11.9574 H   0  0  0  0  0  0  0  0  0  0  0  0
  -48.9899   -2.5059  -13.0284 H   0  0  0  0  0  0  0  0  0  0  0  0
  1 10  1  1  0  0  0
  1  2  1  0  0  0  0
  1  8  1  0  0  0  0
  2  4  1  0  0  0  0
  3  2  1  0  0  0  0
  4  5  1  0  0  0  0
  4 47  1  0  0  0  0
  5  6  1  0  0  0  0
  7  5  2  0  0  0  0
  7 33  1  0  0  0  0
  8  7  1  0  0  0  0
  9  8  1  0  0  0  0
 11 10  1  0  0  0  0
 12 17  1  0  0  0  0
 12 10  1  0  0  0  0
 13 12  2  0  0  0  0
 14 15  2  0  0  0  0
 14 13  1  0  0  0  0
 14 48  1  0  0  0  0
 15 16  1  0  0  0  0
 16 17  2  0  0  0  0
 16 49  1  0  0  0  0
 17 50  1  0  0  0  0
 18 13  1  0  0  0  0
 19 18  1  0  0  0  0
 19 51  1  0  0  0  0
 19 52  1  0  0  0  0
 19 53  1  0  0  0  0
 20 21  1  0  0  0  0
 20 15  1  0  0  0  0
 21 54  1  0  0  0  0
 21 55  1  0  0  0  0
 22 21  1  0  0  0  0
 22 56  1  0  0  0  0
 22 57  1  0  0  0  0
 23 22  1  0  0  0  0
 23 26  1  0  0  0  0
 23 58  1  6  0  0  0
 24 23  1  0  0  0  0
 24 59  1  0  0  0  0
 24 60  1  0  0  0  0
 25 24  1  0  0  0  0
 25 20  1  0  0  0  0
 25 61  1  0  0  0  0
 25 62  1  0  0  0  0
 26 27  1  0  0  0  0
 27 63  1  0  0  0  0
 27 64  1  0  0  0  0
 28 27  1  0  0  0  0
 28 65  1  0  0  0  0
 28 66  1  0  0  0  0
 29 28  1  0  0  0  0
 29 31  1  0  0  0  0
 30 29  1  0  0  0  0
 30 67  1  0  0  0  0
 30 68  1  0  0  0  0
 30 69  1  0  0  0  0
 31 32  1  0  0  0  0
 31 70  1  0  0  0  0
 31 71  1  0  0  0  0
 32 26  1  0  0  0  0
 32 72  1  0  0  0  0
 32 73  1  0  0  0  0
 33 34  1  0  0  0  0
 33 35  1  0  0  0  0
 35 40  2  0  0  0  0
 35 36  1  0  0  0  0
 36 37  2  0  0  0  0
 36 74  1  0  0  0  0
 37 38  1  0  0  0  0
 37 75  1  0  0  0  0
 38 76  1  0  0  0  0
 39 38  2  0  0  0  0
 39 77  1  0  0  0  0
 40 39  1  0  0  0  0
 41 40  1  0  0  0  0
 41 44  1  0  0  0  0
 42 41  2  0  0  0  0
 43 41  2  0  0  0  0
 44 45  1  0  0  0  0
 44 78  1  0  0  0  0
 45 79  1  0  0  0  0
 45 80  1  0  0  0  0
 45 81  1  0  0  0  0
 46 44  1  0  0  0  0
 46 82  1  0  0  0  0
 46 83  1  0  0  0  0
 46 84  1  0  0  0  0
M  END
>  <REMARK>
 VINA RESULT:      -8.4      0.949      1.768
  9 active torsions:
  status: ('A' for Active; 'I' for Inactive)
    1  A    between atoms: O_2  and  C_3 
    2  A    between atoms: C_4  and  N_5 
    3  A    between atoms: N_5  and  C_7 
    4  A    between atoms: C_13  and  N_14 
    5  A    between atoms: N_14  and  C_16 
    6  A    between atoms: C_21  and  S_22 
    7  A    between atoms: S_22  and  C_25 
    8  A    between atoms: C_32  and  N_33 
    9  A    between atoms: C_36  and  N_37 

>  <TORSDO>
F 9

$$$$
resistance_project/docking/8faf60323ce63d5a/P00533_T790M/docked/molecule_0004_out.pdbqt
 OpenBabel09142609533D

 84 88  0  0  1  0  0  0  0  0999 V2000
  -49.6810    0.0310  -17.2250 C   0  0  1  0  0  0  0  0  0  0  0  0
  -49.4630   -1.1520  -16.6040 N   0  0  0  0  0  0  0  0  0  0  0  0
  -48.8870   -1.8760  -17.0340 H   0  0  0  0  0  0  0  0  0  0  0  0
  -50.0280   -1.3410  -15.4020 C   0  0  0  0  0  0  0  0  0  0  0  0
  -50.8010   -0.3670  -14.8240 C   0  0  0  0  0  0  0  0  0  0  0  0
  -51.5090   -0.7280  -13.2610 Cl  0  0  0  0  0  0  0  0  0  0  0  0
  -51.0270    0.8570  -15.4690 C   0  0  0  0  0  0  0  0  0  0  0  0
  -50.4360    0.9870  -16.6660 N   0  0  0  0  0  0  0  0  0  0  0  0
  -50.5700    1.8580  -17.1790 H   0  0  0  0  0  0  0  0  0  0  0  0
  -49.1120    0.3410  -18.5020 N   0  0  0  0  0  0  0  0  0  0  0  0
  -48.4490    1.1130  -18.5740 H   0  0  0  0  0  0  0  0  0  0  0  0
  -49.4440   -0.3950  -19.6720 C   0  0  0  0  0  0  0  0  0  0  0  0
  -50.7490   -0.4970  -20.0860 C   0  0  0  0  0  0  0  0  0  0  0  0
  -51.0440   -1.2000  -21.2410 C   0  0  0  0  0  0  0  0  0  0  0  0
  -50.0090   -1.7970  -21.9710 C   0  0  0  0  0  0  0  0  0  0  0  0
  -48.6860   -1.6990  -21.5580 C   0  0  0  0  0  0  0  0  0  0  0  0
  -48.3960   -0.9860  -20.3890 C   0  0  0  0  0  0  0  0  0  0  0  0
  -51.8040    0.0770  -19.3990 O   0  0  0  0  0  0  0  0  0  0  0  0
  -52.2670    1.3880  -19.6410 C   0  0  0  0  0  0  0  0  0  0  0  0
  -50.3880   -2.4920  -23.1610 N   0  0  0  0  0  0  0  0  0  0  0  0
  -51.7500   -2.9180  -23.4190 C   0  0  0  0  0  0  0  0  0  0  0  0
  -52.0180   -2.6920  -24.8850 C   0  0  0  0  0  0  0  0  0  0  0  0
  -51.1160   -1.7310  -25.5490 C   0  0  2  0  0  0  0  0  0  0  0  0
  -49.6680   -1.8750  -25.3180 C   0  0  0  0  0  0  0  0  0  0  0  0
  -49.3070   -2.7450  -24.1360 C   0  0  0  0  0  0  0  0  0  0  0  0
  -51.6290   -0.4870  -25.9510 N   0  0  0  0  0  0  0  0  0  0  0  0
  -50.9900    0.6850  -25.4610 C   0  0  0  0  0  0  0  0  0  0  0  0
  -51.5920    1.2170  -24.1770 C   0  0  0  0  0  0  0  0  0  0  0  0
  -52.8110    0.4430  -23.9240 N   0  0  0  0  0  0  0  0  0  0  0  0
  -53.5250    1.0670  -22.8500 C   0  0  0  0  0  0  0  0  0  0  0  0
  -53.6160    0.5710  -25.1510 C   0  0  0  0  0  0  0  0  0  0  0  0
  -53.0380   -0.4370  -26.1220 C   0  0  0  0  0  0  0  0  0  0  0  0
  -51.8350    1.7800  -14.8250 N   0  0  0  0  0  0  0  0  0  0  0  0
  -52.6410    1.3750  -14.3500 H   0  0  0  0  0  0  0  0  0  0  0  0
  -51.7370    3.1800  -14.7150 C   0  0  0  0  0  0  0  0  0  0  0  0
  -52.3940    3.8690  -15.7600 C   0  0  0  0  0  0  0  0  0  0  0  0
  -52.3780    5.2180  -15.7670 C   0  0  0  0  0  0  0  0  0  0  0  0
  -51.7290    5.8870  -14.7670 C   0  0  0  0  0  0  0  0  0  0  0  0
  -51.0950    5.2390  -13.7560 C   0  0  0  0  0  0  0  0  0  0  0  0
  -51.0890    3.8530  -13.7100 C   0  0  0  0  0  0  0  0  0  0  0  0
  -50.3520    3.1190  -12.3250 S   0  0  0  0  0  0  0  0  0  0  0  0
  -51.3590    2.1550  -11.6950 O   0  0  0  0  0  0  0  0  0  0  0  0
  -49.9530    4.1390  -11.3350 O   0  0  0  0  0  0  0  0  0  0  0  0
  -48.9350    2.1870  -12.8190 C   0  0  0  0  0  0  0  0  0  0  0  0
  -48.1830    2.9300  -13.8790 C   0  0  0  0  0  0  0  0  0  0  0  0
  -48.0300    1.9190  -11.6290 C   0  0  0  0  0  0  0  0  0  0  0  0
  -49.2294   -1.5411  -14.7185 H   0  0  0  0  0  0  0  0  0  0  0  0
  -52.0211   -1.2837  -21.5624 H   0  0  0  0  0  0  0  0  0  0  0  0
  -47.9310   -2.1438  -22.1032 H   0  0  0  0  0  0  0  0  0  0  0  0
  -47.4221   -0.8969  -20.0595 H   0  0  0  0  0  0  0  0  0  0  0  0
  -53.0871    1.6028  -18.9882 H   0  0  0  0  0  0  0  0  0  0  0  0
  -52.5895    1.4703  -20.6579 H   0  0  0  0  0  0  0  0  0  0  0  0
  -51.4754    2.0849  -19.4604 H   0  0  0  0  0  0  0  0  0  0  0  0
  -51.8607   -3.9555  -23.1818 H   0  0  0  0  0  0  0  0  0  0  0  0
  -52.4410   -2.3656  -22.8171 H   0  0  0  0  0  0  0  0  0  0  0  0
  -51.9265   -3.6326  -25.3868 H   0  0  0  0  0  0  0  0  0  0  0  0
  -52.9987   -2.2683  -24.9452 H   0  0  0  0  0  0  0  0  0  0  0  0
  -51.1354   -2.1513  -26.5328 H   0  0  0  0  0  0  0  0  0  0  0  0
  -49.2569   -0.9008  -25.1542 H   0  0  0  0  0  0  0  0  0  0  0  0
  -49.2672   -2.3570  -26.1852 H   0  0  0  0  0  0  0  0  0  0  0  0
  -48.3572   -2.4627  -23.7322 H   0  0  0  0  0  0  0  0  0  0  0  0
  -49.2223   -3.7792  -24.3971 H   0  0  0  0  0  0  0  0  0  0  0  0
  -51.0627    1.4468  -26.2089 H   0  0  0  0  0  0  0  0  0  0  0  0
  -49.9763    0.4201  -25.2440 H   0  0  0  0  0  0  0  0  0  0  0  0
  -51.8309    2.2544  -24.2850 H   0  0  0  0  0  0  0  0  0  0  0  0
  -50.9032    1.1224  -23.3637 H   0  0  0  0  0  0  0  0  0  0  0  0
  -54.4201    0.5162  -22.6492 H   0  0  0  0  0  0  0  0  0  0  0  0
  -53.7774    2.0699  -23.1247 H   0  0  0  0  0  0  0  0  0  0  0  0
  -52.9107    1.0810  -21.9740 H   0  0  0  0  0  0  0  0  0  0  0  0
  -54.6431    0.3491  -24.9491 H   0  0  0  0  0  0  0  0  0  0  0  0
  -53.5832    1.5653  -25.5450 H   0  0  0  0  0  0  0  0  0  0  0  0
  -53.4574   -1.4023  -25.9293 H   0  0  0  0  0  0  0  0  0  0  0  0
  -53.2707   -0.1475  -27.1255 H   0  0  0  0  0  0  0  0  0  0  0  0
  -52.8790    3.3475  -16.5069 H   0  0  0  0  0  0  0  0  0  0  0  0
  -52.8515    5.7403  -16.5207 H   0  0  0  0  0  0  0  0  0  0  0  0
  -51.7206    6.9189  -14.7809 H   0  0  0  0  0  0  0  0  0  0  0  0
  -50.6159    5.7799  -13.0192 H   0  0  0  0  0  0  0  0  0  0  0  0
  -49.2631    1.2477  -13.2126 H   0  0  0  0  0  0  0  0  0  0  0  0
  -47.8530    3.8703  -13.4895 H   0  0  0  0  0  0  0  0  0  0  0  0
  -48.8233    3.0972  -14.7198 H   0  0  0  0  0  0  0  0  0  0  0  0
  -47.3352    2.3535  -14.1854 H   0  0  0  0  0  0  0  0  0  0  0  0
  -47.6916    2.8488  -11.2217 H   0  0  0  0  0  0  0  0  0  0  0  0
  -47.1873    1.3403  -11.9450 H   0  0  0  0  0  0  0  0  0  0  0  0
  -48.5735    1.3791  -10.8820 H   0  0  0  0  0  0  0  0  0  0  0  0
  1 10  1  1  0  0  0
  1  8  1  0  0  0  0
  1  2  1  0  0  0  0
  2  4  1  0  0  0  0
  3  2  1  0  0  0  0
  4  5  1  0  0  0  0
  4 47  1  0  0  0  0
  5  6  1  0  0  0  0
  7 33  1  0  0  0  0
  7  5  2  0  0  0  0
  8  7  1  0  0  0  0
  9  8  1  0  0  0  0
 11 10  1  0  0  0  0
 12 10  1  0  0  0  0
 13 12  1  0  0  0  0
 13 18  1  0  0  0  0
 14 13  2  0  0  0  0
 14 48  1  0  0  0  0
 15 16  2  0  0  0  0
 15 14  1  0  0  0  0
 16 17  1  0  0  0  0
 16 49  1  0  0  0  0
 17 12  2  0  0  0  0
 17 50  1  0  0  0  0
 19 18  1  0  0  0  0
 19 51  1  0  0  0  0
 19 52  1  0  0  0  0
 19 53  1  0  0  0  0
 20 15  1  0  0  0  0
 21 20  1  0  0  0  0
 21 54  1  0  0  0  0
 21 55  1  0  0  0  0
 22 21  1  0  0  0  0
 22 56  1  0  0  0  0
 22 57  1  0  0  0  0
 23 24  1  0  0  0  0
 23 22  1  0  0  0  0
 23 58  1  6  0  0  0
 24 25  1  0  0  0  0
 24 59  1  0  0  0  0
 24 60  1  0  0  0  0
 25 20  1  0  0  0  0
 25 61  1  0  0  0  0
 25 62  1  0  0  0  0
 26 23  1  0  0  0  0
 26 27  1  0  0  0  0
 27 28  1  0  0  0  0
 27 63  1  0  0  0  0
 27 64  1  0  0  0  0
 28 29  1  0  0  0  0
 28 65  1  0  0  0  0
 28 66  1  0  0  0  0
 29 30  1  0  0  0  0
 30 67  1  0  0  0  0
 30 68  1  0  0  0  0
 30 69  1  0  0  0  0
 31 29  1  0  0  0  0
 31 70  1  0  0  0  0
 31 71  1  0  0  0  0
 32 26  1  0  0  0  0
 32 31  1  0  0  0  0
 32 72  1  0  0  0  0
 32 73  1  0  0  0  0
 33 35  1  0  0  0  0
 33 34  1  0  0  0  0
 35 40  2  0  0  0  0
 36 35  1  0  0  0  0
 36 74  1  0  0  0  0
 37 36  2  0  0  0  0
 37 38  1  0  0  0  0
 37 75  1  0  0  0  0
 38 39  2  0  0  0  0
 38 76  1  0  0  0  0
 39 40  1  0  0  0  0
 39 77  1  0  0  0  0
 40 41  1  0  0  0  0
 41 42  2  0  0  0  0
 41 43  2  0  0  0  0
 44 41  1  0  0  0  0
 44 46  1  0  0  0  0
 44 78  1  0  0  0  0
 45 44  1  0  0  0  0
 45 79  1  0  0  0  0
 45 80  1  0  0  0  0
 45 81  1  0  0  0  0
 46 82  1  0  0  0  0
 46 83  1  0  0  0  0
 46 84  1  0  0  0  0
M  END
>  <REMARK>
 VINA RESULT:      -8.1      3.380      5.823
  9 active torsions:
  status: ('A' for Active; 'I' for Inactive)
    1  A    between atoms: O_2  and  C_3 
    2  A    between atoms: C_4  and  N_5 
    3  A    between atoms: N_5  and  C_7 
    4  A    between atoms: C_13  and  N_14 
    5  A    between atoms: N_14  and  C_16 
    6  A    between atoms: C_21  and  S_22 
    7  A    between atoms: S_22  and  C_25 
    8  A    between atoms: C_32  and  N_33 
    9  A    between atoms: C_36  and  N_37 

>  <TORSDO>
F 9

$$$$
resistance_project/docking/8faf60323ce63d5a/P00533_T790M/docked/molecule_0004_out.pdbqt
 OpenBabel09142609533D

 84 88  0  0  1  0  0  0  0  0999 V2000
  -49.8630   -0.2030  -18.6380 C   0  0  1  0  0  0  0  0  0  0  0  0
  -50.4910    0.7970  -17.9760 N   0  0  0  0  0  0  0  0  0  0  0  0
  -50.1380    1.1410  -17.0820 H   0  0  0  0  0  0  0  0  0  0  0  0
  -51.5910    1.3230  -18.5340 C   0  0  0  0  0  0  0  0  0  0  0  0
  -52.0640    0.8610  -19.7360 C   0  0  0  0  0  0  0  0  0  0  0  0
  -53.5220    1.6050  -20.3630 Cl  0  0  0  0  0  0  0  0  0  0  0  0
  -51.4130   -0.1750  -20.4200 C   0  0  1  0  0  0  0  0  0  0  0  0
  -50.3200   -0.6600  -19.8130 N   0  0  0  0  0  0  0  0  0  0  0  0
  -49.8100   -1.4170  -20.2680 H   0  0  0  0  0  0  0  0  0  0  0  0
  -48.6730   -0.8230  -18.1390 N   0  0  0  0  0  0  0  0  0  0  0  0
  -48.1050   -0.3230  -17.4540 H   0  0  0  0  0  0  0  0  0  0  0  0
  -48.2600   -2.1130  -18.5690 C   0  0  0  0  0  0  0  0  0  0  0  0
  -49.0200   -3.2200  -18.2840 C   0  0  0  0  0  0  0  0  0  0  0  0
  -48.6080   -4.4630  -18.7330 C   0  0  0  0  0  0  0  0  0  0  0  0
  -47.4220   -4.5740  -19.4700 C   0  0  0  0  0  0  0  0  0  0  0  0
  -46.6470   -3.4580  -19.7620 C   0  0  0  0  0  0  0  0  0  0  0  0
  -47.0710   -2.2060  -19.3040 C   0  0  0  0  0  0  0  0  0  0  0  0
  -50.1980   -3.1590  -17.5600 O   0  0  0  0  0  0  0  0  0  0  0  0
  -50.2520   -3.2720  -16.1550 C   0  0  0  0  0  0  0  0  0  0  0  0
  -47.0690   -5.8860  -19.9130 N   0  0  0  0  0  0  0  0  0  0  0  0
  -48.0190   -6.9810  -19.9560 C   0  0  0  0  0  0  0  0  0  0  0  0
  -47.7370   -7.7680  -21.2100 C   0  0  0  0  0  0  0  0  0  0  0  0
  -46.9800   -7.0460  -22.2510 C   0  0  2  0  0  0  0  0  0  0  0  0
  -45.7730   -6.3090  -21.8360 C   0  0  0  0  0  0  0  0  0  0  0  0
  -45.6690   -6.0680  -20.3480 C   0  0  0  0  0  0  0  0  0  0  0  0
  -47.6390   -6.6770  -23.4340 N   0  0  0  0  0  0  0  0  0  0  0  0
  -48.4590   -7.6490  -24.0710 C   0  0  0  0  0  0  0  0  0  0  0  0
  -47.7340   -8.4710  -25.1150 C   0  0  0  0  0  0  0  0  0  0  0  0
  -46.4100   -7.8650  -25.2910 N   0  0  0  0  0  0  0  0  0  0  0  0
  -45.7850   -8.4730  -26.4290 C   0  0  0  0  0  0  0  0  0  0  0  0
  -46.6670   -6.4500  -25.6060 C   0  0  0  0  0  0  0  0  0  0  0  0
  -46.9240   -5.7790  -24.2720 C   0  0  0  0  0  0  0  0  0  0  0  0
  -51.9660   -0.5960  -21.6190 N   0  0  0  0  0  0  0  0  0  0  0  0
  -52.7530   -1.2370  -21.5180 H   0  0  0  0  0  0  0  0  0  0  0  0
  -51.6280   -0.2950  -22.9520 C   0  0  0  0  0  0  0  0  0  0  0  0
  -52.2060    0.9100  -23.4150 C   0  0  0  0  0  0  0  0  0  0  0  0
  -51.9560    1.3140  -24.6770 C   0  0  0  0  0  0  0  0  0  0  0  0
  -51.1520    0.5520  -25.4790 C   0  0  0  0  0  0  0  0  0  0  0  0
  -50.5900   -0.6060  -25.0480 C   0  0  0  0  0  0  0  0  0  0  0  0
  -50.8190   -1.0560  -23.7570 C   0  0  0  0  0  0  0  0  0  0  0  0
  -49.9700   -2.4830  -23.2620 S   0  0  0  0  0  0  0  0  0  0  0  0
  -49.1900   -2.1640  -21.9860 O   0  0  0  0  0  0  0  0  0  0  0  0
  -49.0400   -2.9360  -24.3150 O   0  0  0  0  0  0  0  0  0  0  0  0
  -51.1210   -3.7730  -22.8940 C   0  0  0  0  0  0  0  0  0  0  0  0
  -51.4580   -4.5240  -24.1450 C   0  0  0  0  0  0  0  0  0  0  0  0
  -50.5470   -4.7200  -21.8560 C   0  0  0  0  0  0  0  0  0  0  0  0
  -52.0895    2.0872  -18.0518 H   0  0  0  0  0  0  0  0  0  0  0  0
  -49.1712   -5.3027  -18.5260 H   0  0  0  0  0  0  0  0  0  0  0  0
  -45.7752   -3.5511  -20.3064 H   0  0  0  0  0  0  0  0  0  0  0  0
  -46.5143   -1.3606  -19.5053 H   0  0  0  0  0  0  0  0  0  0  0  0
  -51.2684   -3.1941  -15.8297 H   0  0  0  0  0  0  0  0  0  0  0  0
  -49.6745   -2.4879  -15.7117 H   0  0  0  0  0  0  0  0  0  0  0  0
  -49.8541   -4.2198  -15.8578 H   0  0  0  0  0  0  0  0  0  0  0  0
  -47.8971   -7.6059  -19.0960 H   0  0  0  0  0  0  0  0  0  0  0  0
  -49.0234   -6.6121  -19.9574 H   0  0  0  0  0  0  0  0  0  0  0  0
  -47.1758   -8.6368  -20.9358 H   0  0  0  0  0  0  0  0  0  0  0  0
  -48.6911   -7.9918  -21.6396 H   0  0  0  0  0  0  0  0  0  0  0  0
  -46.4799   -7.8831  -22.6916 H   0  0  0  0  0  0  0  0  0  0  0  0
  -45.7746   -5.3595  -22.3294 H   0  0  0  0  0  0  0  0  0  0  0  0
  -44.9357   -6.9182  -22.1057 H   0  0  0  0  0  0  0  0  0  0  0  0
  -45.0912   -5.1906  -20.1449 H   0  0  0  0  0  0  0  0  0  0  0  0
  -45.1810   -6.8705  -19.8354 H   0  0  0  0  0  0  0  0  0  0  0  0
  -48.8383   -8.3130  -23.3226 H   0  0  0  0  0  0  0  0  0  0  0  0
  -49.2362   -7.1166  -24.5783 H   0  0  0  0  0  0  0  0  0  0  0  0
  -47.6341   -9.4830  -24.7822 H   0  0  0  0  0  0  0  0  0  0  0  0
  -48.2757   -8.4819  -26.0377 H   0  0  0  0  0  0  0  0  0  0  0  0
  -44.8157   -8.0440  -26.5752 H   0  0  0  0  0  0  0  0  0  0  0  0
  -46.3850   -8.3032  -27.2985 H   0  0  0  0  0  0  0  0  0  0  0  0
  -45.6878   -9.5255  -26.2626 H   0  0  0  0  0  0  0  0  0  0  0  0
  -47.5225   -6.3578  -26.2420 H   0  0  0  0  0  0  0  0  0  0  0  0
  -45.8443   -6.0026  -26.1236 H   0  0  0  0  0  0  0  0  0  0  0  0
  -47.5018   -4.8910  -24.4222 H   0  0  0  0  0  0  0  0  0  0  0  0
  -45.9935   -5.5182  -23.8127 H   0  0  0  0  0  0  0  0  0  0  0  0
  -52.8106    1.4721  -22.7957 H   0  0  0  0  0  0  0  0  0  0  0  0
  -52.3677    2.1903  -25.0344 H   0  0  0  0  0  0  0  0  0  0  0  0
  -50.9664    0.8678  -26.4438 H   0  0  0  0  0  0  0  0  0  0  0  0
  -49.9897   -1.1537  -25.6841 H   0  0  0  0  0  0  0  0  0  0  0  0
  -52.0121   -3.3347  -22.4955 H   0  0  0  0  0  0  0  0  0  0  0  0
  -50.5695   -4.9641  -24.5471 H   0  0  0  0  0  0  0  0  0  0  0  0
  -51.8789   -3.8510  -24.8626 H   0  0  0  0  0  0  0  0  0  0  0  0
  -52.1665   -5.2934  -23.9192 H   0  0  0  0  0  0  0  0  0  0  0  0
  -49.6537   -5.1685  -22.2377 H   0  0  0  0  0  0  0  0  0  0  0  0
  -51.2632   -5.4836  -21.6351 H   0  0  0  0  0  0  0  0  0  0  0  0
  -50.3195   -4.1754  -20.9635 H   0  0  0  0  0  0  0  0  0  0  0  0
  1 10  1  6  0  0  0
  1  2  1  0  0  0  0
  2  3  1  0  0  0  0
  4  2  1  0  0  0  0
  4 47  1  0  0  0  0
  5  4  2  0  0  0  0
  6  5  1  0  0  0  0
  7 33  1  1  0  0  0
  7  8  1  0  0  0  0
  7  5  1  0  0  0  0
  8  1  1  0  0  0  0
  9  8  1  0  0  0  0
 10 11  1  0  0  0  0
 12 13  1  0  0  0  0
 12 10  1  0  0  0  0
 13 18  1  0  0  0  0
 14 13  2  0  0  0  0
 14 48  1  0  0  0  0
 15 14  1  0  0  0  0
 16 15  2  0  0  0  0
 16 17  1  0  0  0  0
 16 49  1  0  0  0  0
 17 12  2  0  0  0  0
 17 50  1  0  0  0  0
 18 19  1  0  0  0  0
 19 51  1  0  0  0  0
 19 52  1  0  0  0  0
 19 53  1  0  0  0  0
 20 15  1  0  0  0  0
 21 20  1  0  0  0  0
 21 54  1  0  0  0  0
 21 55  1  0  0  0  0
 22 21  1  0  0  0  0
 22 56  1  0  0  0  0
 22 57  1  0  0  0  0
 23 24  1  0  0  0  0
 23 22  1  0  0  0  0
 23 58  1  6  0  0  0
 24 25  1  0  0  0  0
 24 59  1  0  0  0  0
 24 60  1  0  0  0  0
 25 20  1  0  0  0  0
 25 61  1  0  0  0  0
 25 62  1  0  0  0  0
 26 23  1  0  0  0  0
 27 26  1  0  0  0  0
 27 63  1  0  0  0  0
 27 64  1  0  0  0  0
 28 27  1  0  0  0  0
 28 65  1  0  0  0  0
 28 66  1  0  0  0  0
 29 28  1  0  0  0  0
 30 29  1  0  0  0  0
 30 67  1  0  0  0  0
 30 68  1  0  0  0  0
 30 69  1  0  0  0  0
 31 29  1  0  0  0  0
 31 32  1  0  0  0  0
 31 70  1  0  0  0  0
 31 71  1  0  0  0  0
 32 26  1  0  0  0  0
 32 72  1  0  0  0  0
 32 73  1  0  0  0  0
 33 34  1  0  0  0  0
 35 33  1  0  0  0  0
 36 35  1  0  0  0  0
 36 74  1  0  0  0  0
 37 36  2  0  0  0  0
 37 75  1  0  0  0  0
 38 39  2  0  0  0  0
 38 37  1  0  0  0  0
 38 76  1  0  0  0  0
 39 40  1  0  0  0  0
 39 77  1  0  0  0  0
 40 41  1  0  0  0  0
 40 35  2  0  0  0  0
 41 44  1  0  0  0  0
 41 42  2  0  0  0  0
 43 41  2  0  0  0  0
 44 46  1  0  0  0  0
 44 78  1  0  0  0  0
 45 44  1  0  0  0  0
 45 79  1  0  0  0  0
 45 80  1  0  0  0  0
 45 81  1  0  0  0  0
 46 82  1  0  0  0  0
 46 83  1  0  0  0  0
 46 84  1  0  0  0  0
M  END
>  <REMARK>
 VINA RESULT:      -7.9      4.443      8.494
  9 active torsions:
  status: ('A' for Active; 'I' for Inactive)
    1  A    between atoms: O_2  and  C_3 
    2  A    between atoms: C_4  and  N_5 
    3  A    between atoms: N_5  and  C_7 
    4  A    between atoms: C_13  and  N_14 
    5  A    between atoms: N_14  and  C_16 
    6  A    between atoms: C_21  and  S_22 
    7  A    between atoms: S_22  and  C_25 
    8  A    between atoms: C_32  and  N_33 
    9  A    between atoms: C_36  and  N_37 

>  <TORSDO>
F 9

$$$$
resistance_project/docking/8faf60323ce63d5a/P00533_T790M/docked/molecule_0004_out.pdbqt
 OpenBabel09142609533D

 84 88  0  0  1  0  0  0  0  0999 V2000
  -51.7240    0.9030  -18.6170 C   0  0  1  0  0  0  0  0  0  0  0  0
  -50.4570    0.4240  -18.6390 N   0  0  0  0  0  0  0  0  0  0  0  0
  -50.0740   -0.0170  -19.4750 H   0  0  0  0  0  0  0  0  0  0  0  0
  -49.7210    0.5520  -17.5240 C   0  0  0  0  0  0  0  0  0  0  0  0
  -50.2370    1.1460  -16.4010 C   0  0  0  0  0  0  0  0  0  0  0  0
  -49.1940    1.2390  -14.9940 Cl  0  0  0  0  0  0  0  0  0  0  0  0
  -51.5480    1.6400  -16.3790 C   0  0  0  0  0  0  0  0  0  0  0  0
  -52.2340    1.4840  -17.5210 N   0  0  0  0  0  0  0  0  0  0  0  0
  -53.1940    1.8250  -17.5590 H   0  0  0  0  0  0  0  0  0  0  0  0
  -52.5880    0.8330  -19.7560 N   0  0  0  0  0  0  0  0  0  0  0  0
  -53.5110    1.2670  -19.7040 H   0  0  0  0  0  0  0  0  0  0  0  0
  -52.2000    0.1780  -20.9560 C   0  0  0  0  0  0  0  0  0  0  0  0
  -51.9510   -1.1720  -20.9660 C   0  0  0  0  0  0  0  0  0  0  0  0
  -51.5960   -1.7900  -22.1520 C   0  0  0  0  0  0  0  0  0  0  0  0
  -51.4950   -1.0310  -23.3250 C   0  0  0  0  0  0  0  0  0  0  0  0
  -51.7450    0.3350  -23.3230 C   0  0  0  0  0  0  0  0  0  0  0  0
  -52.1030    0.9530  -22.1190 C   0  0  0  0  0  0  0  0  0  0  0  0
  -52.0390   -1.9620  -19.8330 O   0  0  0  0  0  0  0  0  0  0  0  0
  -51.0580   -2.9090  -19.4690 C   0  0  0  0  0  0  0  0  0  0  0  0
  -51.1400   -1.7410  -24.5130 N   0  0  0  0  0  0  0  0  0  0  0  0
  -49.8980   -1.5060  -25.2250 C   0  0  0  0  0  0  0  0  0  0  0  0
  -49.3920   -2.8460  -25.6940 C   0  0  0  0  0  0  0  0  0  0  0  0
  -49.9400   -4.0130  -24.9760 C   0  0  2  0  0  0  0  0  0  0  0  0
  -51.3980   -4.0700  -24.7670 C   0  0  0  0  0  0  0  0  0  0  0  0
  -52.1100   -2.7540  -24.9770 C   0  0  0  0  0  0  0  0  0  0  0  0
  -49.0950   -4.7430  -24.1250 N   0  0  0  0  0  0  0  0  0  0  0  0
  -49.2890   -4.6120  -22.7210 C   0  0  0  0  0  0  0  0  0  0  0  0
  -48.4480   -3.5230  -22.0880 C   0  0  0  0  0  0  0  0  0  0  0  0
  -47.5200   -3.0470  -23.1180 N   0  0  0  0  0  0  0  0  0  0  0  0
  -46.5610   -2.1830  -22.4950 C   0  0  0  0  0  0  0  0  0  0  0  0
  -46.8170   -4.2490  -23.5970 C   0  0  0  0  0  0  0  0  0  0  0  0
  -47.7600   -4.9030  -24.5850 C   0  0  0  0  0  0  0  0  0  0  0  0
  -51.9980    2.2080  -15.2000 N   0  0  0  0  0  0  0  0  0  0  0  0
  -52.4000    1.5440  -14.5380 H   0  0  0  0  0  0  0  0  0  0  0  0
  -52.0000    3.5450  -14.7550 C   0  0  0  0  0  0  0  0  0  0  0  0
  -52.3070    4.4720  -15.7770 C   0  0  0  0  0  0  0  0  0  0  0  0
  -52.3440    5.7860  -15.4790 C   0  0  0  0  0  0  0  0  0  0  0  0
  -52.0860    6.1930  -14.1990 C   0  0  0  0  0  0  0  0  0  0  0  0
  -51.7910    5.3130  -13.2080 C   0  0  0  0  0  0  0  0  0  0  0  0
  -51.7440    3.9530  -13.4710 C   0  0  0  0  0  0  0  0  0  0  0  0
  -51.4710    2.9030  -12.1200 S   0  0  0  0  0  0  0  0  0  0  0  0
  -51.6350    1.4570  -12.5910 O   0  0  0  0  0  0  0  0  0  0  0  0
  -52.4270    3.1830  -11.0300 O   0  0  0  0  0  0  0  0  0  0  0  0
  -49.8190    3.1030  -11.5250 C   0  0  0  0  0  0  0  0  0  0  0  0
  -49.2790    1.7810  -11.0730 C   0  0  0  0  0  0  0  0  0  0  0  0
  -48.9290    3.6880  -12.6050 C   0  0  0  0  0  0  0  0  0  0  0  0
  -48.8535    1.1166  -17.7954 H   0  0  0  0  0  0  0  0  0  0  0  0
  -51.4067   -2.8043  -22.1723 H   0  0  0  0  0  0  0  0  0  0  0  0
  -51.6683    0.8845  -24.1932 H   0  0  0  0  0  0  0  0  0  0  0  0
  -52.2931    1.9669  -22.0885 H   0  0  0  0  0  0  0  0  0  0  0  0
  -51.3486   -3.3920  -18.5595 H   0  0  0  0  0  0  0  0  0  0  0  0
  -50.1202   -2.4141  -19.3261 H   0  0  0  0  0  0  0  0  0  0  0  0
  -50.9614   -3.6389  -20.2454 H   0  0  0  0  0  0  0  0  0  0  0  0
  -50.0723   -0.8658  -26.0644 H   0  0  0  0  0  0  0  0  0  0  0  0
  -49.1803   -1.0305  -24.5896 H   0  0  0  0  0  0  0  0  0  0  0  0
  -48.3283   -2.8565  -25.5789 H   0  0  0  0  0  0  0  0  0  0  0  0
  -49.7140   -2.9452  -26.7096 H   0  0  0  0  0  0  0  0  0  0  0  0
  -49.8913   -4.7229  -25.7751 H   0  0  0  0  0  0  0  0  0  0  0  0
  -51.8065   -4.7845  -25.4508 H   0  0  0  0  0  0  0  0  0  0  0  0
  -51.5496   -4.3394  -23.7426 H   0  0  0  0  0  0  0  0  0  0  0  0
  -53.0090   -2.7120  -24.3983 H   0  0  0  0  0  0  0  0  0  0  0  0
  -52.4045   -2.6044  -25.9947 H   0  0  0  0  0  0  0  0  0  0  0  0
  -49.0397   -5.5436  -22.2574 H   0  0  0  0  0  0  0  0  0  0  0  0
  -50.3135   -4.3421  -22.5712 H   0  0  0  0  0  0  0  0  0  0  0  0
  -49.0737   -2.7204  -21.7575 H   0  0  0  0  0  0  0  0  0  0  0  0
  -47.9167   -3.8958  -21.2373 H   0  0  0  0  0  0  0  0  0  0  0  0
  -45.8729   -1.8240  -23.2316 H   0  0  0  0  0  0  0  0  0  0  0  0
  -46.0275   -2.7258  -21.7429 H   0  0  0  0  0  0  0  0  0  0  0  0
  -47.0667   -1.3542  -22.0454 H   0  0  0  0  0  0  0  0  0  0  0  0
  -45.9000   -3.9791  -24.0778 H   0  0  0  0  0  0  0  0  0  0  0  0
  -46.5652   -4.9083  -22.7928 H   0  0  0  0  0  0  0  0  0  0  0  0
  -47.6529   -4.4400  -25.5437 H   0  0  0  0  0  0  0  0  0  0  0  0
  -47.5292   -5.9443  -24.6704 H   0  0  0  0  0  0  0  0  0  0  0  0
  -52.5000    4.1474  -16.7374 H   0  0  0  0  0  0  0  0  0  0  0  0
  -52.5652    6.4793  -16.2107 H   0  0  0  0  0  0  0  0  0  0  0  0
  -52.1165    7.2009  -13.9795 H   0  0  0  0  0  0  0  0  0  0  0  0
  -51.6009    5.6585  -12.2543 H   0  0  0  0  0  0  0  0  0  0  0  0
  -49.8328    3.7798  -10.6964 H   0  0  0  0  0  0  0  0  0  0  0  0
  -49.2634    1.1009  -11.8989 H   0  0  0  0  0  0  0  0  0  0  0  0
  -49.9029    1.3869  -10.2982 H   0  0  0  0  0  0  0  0  0  0  0  0
  -48.2849    1.9108  -10.6990 H   0  0  0  0  0  0  0  0  0  0  0  0
  -48.9025    3.0241  -13.4437 H   0  0  0  0  0  0  0  0  0  0  0  0
  -47.9388    3.8165  -12.2203 H   0  0  0  0  0  0  0  0  0  0  0  0
  -49.3179    4.6361  -12.9128 H   0  0  0  0  0  0  0  0  0  0  0  0
  1 10  1  6  0  0  0
  1  8  1  0  0  0  0
  2  1  1  0  0  0  0
  2  4  1  0  0  0  0
  3  2  1  0  0  0  0
  4  5  1  0  0  0  0
  4 47  1  0  0  0  0
  5  7  2  0  0  0  0
  5  6  1  0  0  0  0
  7 33  1  0  0  0  0
  8  7  1  0  0  0  0
  9  8  1  0  0  0  0
 10 11  1  0  0  0  0
 12 10  1  0  0  0  0
 13 12  1  0  0  0  0
 13 18  1  0  0  0  0
 14 13  2  0  0  0  0
 14 48  1  0  0  0  0
 15 16  2  0  0  0  0
 15 14  1  0  0  0  0
 16 17  1  0  0  0  0
 16 49  1  0  0  0  0
 17 12  2  0  0  0  0
 17 50  1  0  0  0  0
 18 19  1  0  0  0  0
 19 51  1  0  0  0  0
 19 52  1  0  0  0  0
 19 53  1  0  0  0  0
 20 15  1  0  0  0  0
 21 20  1  0  0  0  0
 21 54  1  0  0  0  0
 21 55  1  0  0  0  0
 22 21  1  0  0  0  0
 22 23  1  0  0  0  0
 22 56  1  0  0  0  0
 22 57  1  0  0  0  0
 23 24  1  0  0  0  0
 23 26  1  0  0  0  0
 23 58  1  6  0  0  0
 24 59  1  0  0  0  0
 24 60  1  0  0  0  0
 25 24  1  0  0  0  0
 25 20  1  0  0  0  0
 25 61  1  0  0  0  0
 25 62  1  0  0  0  0
 26 27  1  0  0  0  0
 27 28  1  0  0  0  0
 27 63  1  0  0  0  0
 27 64  1  0  0  0  0
 28 65  1  0  0  0  0
 28 66  1  0  0  0  0
 29 30  1  0  0  0  0
 29 28  1  0  0  0  0
 30 67  1  0  0  0  0
 30 68  1  0  0  0  0
 30 69  1  0  0  0  0
 31 29  1  0  0  0  0
 31 70  1  0  0  0  0
 31 71  1  0  0  0  0
 32 26  1  0  0  0  0
 32 31  1  0  0  0  0
 32 72  1  0  0  0  0
 32 73  1  0  0  0  0
 33 35  1  0  0  0  0
 33 34  1  0  0  0  0
 35 40  2  0  0  0  0
 36 37  2  0  0  0  0
 36 35  1  0  0  0  0
 36 74  1  0  0  0  0
 37 38  1  0  0  0  0
 37 75  1  0  0  0  0
 38 39  2  0  0  0  0
 38 76  1  0  0  0  0
 39 77  1  0  0  0  0
 40 39  1  0  0  0  0
 40 41  1  0  0  0  0
 41 44  1  0  0  0  0
 41 43  2  0  0  0  0
 42 41  2  0  0  0  0
 44 45  1  0  0  0  0
 44 78  1  0  0  0  0
 45 79  1  0  0  0  0
 45 80  1  0  0  0  0
 45 81  1  0  0  0  0
 46 44  1  0  0  0  0
 46 82  1  0  0  0  0
 46 83  1  0  0  0  0
 46 84  1  0  0  0  0
M  END
>  <REMARK>
 VINA RESULT:      -7.9      3.522      5.009
  9 active torsions:
  status: ('A' for Active; 'I' for Inactive)
    1  A    between atoms: O_2  and  C_3 
    2  A    between atoms: C_4  and  N_5 
    3  A    between atoms: N_5  and  C_7 
    4  A    between atoms: C_13  and  N_14 
    5  A    between atoms: N_14  and  C_16 
    6  A    between atoms: C_21  and  S_22 
    7  A    between atoms: S_22  and  C_25 
    8  A    between atoms: C_32  and  N_33 
    9  A    between atoms: C_36  and  N_37 

>  <TORSDO>
F 9

$$$$
resistance_project/docking/8faf60323ce63d5a/P00533_T790M/docked/molecule_0004_out.pdbqt
 OpenBabel09142609533D

 84 88  0  0  1  0  0  0  0  0999 V2000
  -51.8880   -2.8160  -23.9780 C   0  0  1  0  0  0  0  0  0  0  0  0
  -52.5120   -2.3270  -25.0760 N   0  0  0  0  0  0  0  0  0  0  0  0
  -52.9230   -2.9510  -25.7710 H   0  0  0  0  0  0  0  0  0  0  0  0
  -52.5760   -0.9950  -25.2180 C   0  0  0  0  0  0  0  0  0  0  0  0
  -52.0240   -0.1570  -24.2830 C   0  0  0  0  0  0  0  0  0  0  0  0
  -52.1450    1.5670  -24.5810 Cl  0  0  0  0  0  0  0  0  0  0  0  0
  -51.3770   -0.6640  -23.1480 C   0  0  1  0  0  0  0  0  0  0  0  0
  -51.3460   -2.0020  -23.0600 N   0  0  0  0  0  0  0  0  0  0  0  0
  -50.8850   -2.4240  -22.2540 H   0  0  0  0  0  0  0  0  0  0  0  0
  -51.7780   -4.2200  -23.7210 N   0  0  0  0  0  0  0  0  0  0  0  0
  -52.6120   -4.8040  -23.8000 H   0  0  0  0  0  0  0  0  0  0  0  0
  -50.5440   -4.8250  -23.3590 C   0  0  0  0  0  0  0  0  0  0  0  0
  -49.4880   -4.8330  -24.2360 C   0  0  0  0  0  0  0  0  0  0  0  0
  -48.2880   -5.4080  -23.8520 C   0  0  0  0  0  0  0  0  0  0  0  0
  -48.1690   -5.9740  -22.5760 C   0  0  0  0  0  0  0  0  0  0  0  0
  -49.2340   -5.9690  -21.6840 C   0  0  0  0  0  0  0  0  0  0  0  0
  -50.4430   -5.3860  -22.0800 C   0  0  0  0  0  0  0  0  0  0  0  0
  -49.5580   -4.2860  -25.5050 O   0  0  0  0  0  0  0  0  0  0  0  0
  -48.7690   -3.1930  -25.9240 C   0  0  0  0  0  0  0  0  0  0  0  0
  -46.8980   -6.5340  -22.2450 N   0  0  0  0  0  0  0  0  0  0  0  0
  -45.7610   -5.7230  -21.8540 C   0  0  0  0  0  0  0  0  0  0  0  0
  -45.0450   -6.4580  -20.7510 C   0  0  0  0  0  0  0  0  0  0  0  0
  -45.8500   -7.4750  -20.0470 C   0  0  2  0  0  0  0  0  0  0  0  0
  -46.6250   -8.4250  -20.8640 C   0  0  0  0  0  0  0  0  0  0  0  0
  -46.8030   -8.0080  -22.3060 C   0  0  0  0  0  0  0  0  0  0  0  0
  -46.2390   -7.2320  -18.7200 N   0  0  0  0  0  0  0  0  0  0  0  0
  -47.5790   -6.8140  -18.4860 C   0  0  0  0  0  0  0  0  0  0  0  0
  -47.7550   -5.3100  -18.4700 C   0  0  0  0  0  0  0  0  0  0  0  0
  -46.4120   -4.7220  -18.5150 N   0  0  0  0  0  0  0  0  0  0  0  0
  -46.5290   -3.3150  -18.2720 C   0  0  0  0  0  0  0  0  0  0  0  0
  -45.6830   -5.3280  -17.3880 C   0  0  0  0  0  0  0  0  0  0  0  0
  -45.2310   -6.6870  -17.8810 C   0  0  0  0  0  0  0  0  0  0  0  0
  -50.8300    0.2490  -22.2610 N   0  0  0  0  0  0  0  0  0  0  0  0
  -49.9660    0.6830  -22.5840 H   0  0  0  0  0  0  0  0  0  0  0  0
  -51.2600    0.6810  -20.9920 C   0  0  0  0  0  0  0  0  0  0  0  0
  -52.3730    1.5500  -21.0460 C   0  0  0  0  0  0  0  0  0  0  0  0
  -52.8850    2.0320  -19.8950 C   0  0  0  0  0  0  0  0  0  0  0  0
  -52.3170    1.6700  -18.7040 C   0  0  0  0  0  0  0  0  0  0  0  0
  -51.2490    0.8340  -18.6380 C   0  0  0  0  0  0  0  0  0  0  0  0
  -50.6940    0.3150  -19.7960 C   0  0  0  0  0  0  0  0  0  0  0  0
  -49.4060   -0.8280  -19.6050 S   0  0  0  0  0  0  0  0  0  0  0  0
  -48.4950   -0.3440  -18.4760 O   0  0  0  0  0  0  0  0  0  0  0  0
  -48.6280   -0.9600  -20.8520 O   0  0  0  0  0  0  0  0  0  0  0  0
  -50.0610   -2.4030  -19.1460 C   0  0  0  0  0  0  0  0  0  0  0  0
  -50.1420   -2.5030  -17.6530 C   0  0  0  0  0  0  0  0  0  0  0  0
  -51.4350   -2.6100  -19.7570 C   0  0  0  0  0  0  0  0  0  0  0  0
  -53.0479   -0.5943  -26.0437 H   0  0  0  0  0  0  0  0  0  0  0  0
  -47.4864   -5.4195  -24.5018 H   0  0  0  0  0  0  0  0  0  0  0  0
  -49.1353   -6.3878  -20.7460 H   0  0  0  0  0  0  0  0  0  0  0  0
  -51.2503   -5.3697  -21.4373 H   0  0  0  0  0  0  0  0  0  0  0  0
  -49.0021   -2.9538  -26.9405 H   0  0  0  0  0  0  0  0  0  0  0  0
  -47.7333   -3.4504  -25.8467 H   0  0  0  0  0  0  0  0  0  0  0  0
  -48.9735   -2.3464  -25.3024 H   0  0  0  0  0  0  0  0  0  0  0  0
  -46.0951   -4.7694  -21.5019 H   0  0  0  0  0  0  0  0  0  0  0  0
  -45.1084   -5.5591  -22.6860 H   0  0  0  0  0  0  0  0  0  0  0  0
  -44.7189   -5.7373  -20.0305 H   0  0  0  0  0  0  0  0  0  0  0  0
  -44.2422   -6.9876  -21.2199 H   0  0  0  0  0  0  0  0  0  0  0  0
  -45.0579   -8.1434  -19.7812 H   0  0  0  0  0  0  0  0  0  0  0  0
  -46.1209   -9.3687  -20.8483 H   0  0  0  0  0  0  0  0  0  0  0  0
  -47.6045   -8.4681  -20.4354 H   0  0  0  0  0  0  0  0  0  0  0  0
  -45.9629   -8.3106  -22.8955 H   0  0  0  0  0  0  0  0  0  0  0  0
  -47.6614   -8.4567  -22.7607 H   0  0  0  0  0  0  0  0  0  0  0  0
  -47.8927   -7.2006  -17.5389 H   0  0  0  0  0  0  0  0  0  0  0  0
  -48.1688   -7.1886  -19.2964 H   0  0  0  0  0  0  0  0  0  0  0  0
  -48.3221   -4.9971  -19.3217 H   0  0  0  0  0  0  0  0  0  0  0  0
  -48.2808   -4.9958  -17.5927 H   0  0  0  0  0  0  0  0  0  0  0  0
  -47.0569   -2.8559  -19.0816 H   0  0  0  0  0  0  0  0  0  0  0  0
  -45.5527   -2.8843  -18.1930 H   0  0  0  0  0  0  0  0  0  0  0  0
  -47.0648   -3.1539  -17.3599 H   0  0  0  0  0  0  0  0  0  0  0  0
  -46.3267   -5.4332  -16.5398 H   0  0  0  0  0  0  0  0  0  0  0  0
  -44.8562   -4.7230  -17.0793 H   0  0  0  0  0  0  0  0  0  0  0  0
  -44.3208   -6.5837  -18.4340 H   0  0  0  0  0  0  0  0  0  0  0  0
  -45.0632   -7.3369  -17.0477 H   0  0  0  0  0  0  0  0  0  0  0  0
  -52.7884    1.8122  -21.9536 H   0  0  0  0  0  0  0  0  0  0  0  0
  -53.6976    2.6679  -19.9125 H   0  0  0  0  0  0  0  0  0  0  0  0
  -52.7130    2.0444  -17.8276 H   0  0  0  0  0  0  0  0  0  0  0  0
  -50.8488    0.5840  -17.7202 H   0  0  0  0  0  0  0  0  0  0  0  0
  -49.4087   -3.1662  -19.5161 H   0  0  0  0  0  0  0  0  0  0  0  0
  -50.7937   -1.7410  -17.2793 H   0  0  0  0  0  0  0  0  0  0  0  0
  -49.1660   -2.3749  -17.2335 H   0  0  0  0  0  0  0  0  0  0  0  0
  -50.5241   -3.4645  -17.3801 H   0  0  0  0  0  0  0  0  0  0  0  0
  -52.1025   -1.8547  -19.3979 H   0  0  0  0  0  0  0  0  0  0  0  0
  -51.8064   -3.5748  -19.4810 H   0  0  0  0  0  0  0  0  0  0  0  0
  -51.3647   -2.5464  -20.8228 H   0  0  0  0  0  0  0  0  0  0  0  0
  1 10  1  1  0  0  0
  1  8  1  0  0  0  0
  2  1  1  0  0  0  0
  3  2  1  0  0  0  0
  4  2  1  0  0  0  0
  4  5  2  0  0  0  0
  4 47  1  0  0  0  0
  5  7  1  0  0  0  0
  6  5  1  0  0  0  0
  7  8  1  0  0  0  0
  7 33  1  6  0  0  0
  8  9  1  0  0  0  0
 10 12  1  0  0  0  0
 11 10  1  0  0  0  0
 12 17  2  0  0  0  0
 13 14  2  0  0  0  0
 13 12  1  0  0  0  0
 14 15  1  0  0  0  0
 14 48  1  0  0  0  0
 15 20  1  0  0  0  0
 15 16  2  0  0  0  0
 16 49  1  0  0  0  0
 17 16  1  0  0  0  0
 17 50  1  0  0  0  0
 18 13  1  0  0  0  0
 19 18  1  0  0  0  0
 19 51  1  0  0  0  0
 19 52  1  0  0  0  0
 19 53  1  0  0  0  0
 20 21  1  0  0  0  0
 21 22  1  0  0  0  0
 21 54  1  0  0  0  0
 21 55  1  0  0  0  0
 22 23  1  0  0  0  0
 22 56  1  0  0  0  0
 22 57  1  0  0  0  0
 23 26  1  0  0  0  0
 23 58  1  1  0  0  0
 24 23  1  0  0  0  0
 24 59  1  0  0  0  0
 24 60  1  0  0  0  0
 25 20  1  0  0  0  0
 25 24  1  0  0  0  0
 25 61  1  0  0  0  0
 25 62  1  0  0  0  0
 26 27  1  0  0  0  0
 26 32  1  0  0  0  0
 27 28  1  0  0  0  0
 27 63  1  0  0  0  0
 27 64  1  0  0  0  0
 28 65  1  0  0  0  0
 28 66  1  0  0  0  0
 29 28  1  0  0  0  0
 29 30  1  0  0  0  0
 29 31  1  0  0  0  0
 30 67  1  0  0  0  0
 30 68  1  0  0  0  0
 30 69  1  0  0  0  0
 31 70  1  0  0  0  0
 31 71  1  0  0  0  0
 32 31  1  0  0  0  0
 32 72  1  0  0  0  0
 32 73  1  0  0  0  0
 33 35  1  0  0  0  0
 34 33  1  0  0  0  0
 35 40  1  0  0  0  0
 36 35  2  0  0  0  0
 36 37  1  0  0  0  0
 36 74  1  0  0  0  0
 37 38  2  0  0  0  0
 37 75  1  0  0  0  0
 38 39  1  0  0  0  0
 38 76  1  0  0  0  0
 39 77  1  0  0  0  0
 40 41  1  0  0  0  0
 40 39  2  0  0  0  0
 41 44  1  0  0  0  0
 41 42  2  0  0  0  0
 43 41  2  0  0  0  0
 44 45  1  0  0  0  0
 44 78  1  0  0  0  0
 45 79  1  0  0  0  0
 45 80  1  0  0  0  0
 45 81  1  0  0  0  0
 46 44  1  0  0  0  0
 46 82  1  0  0  0  0
 46 83  1  0  0  0  0
 46 84  1  0  0  0  0
M  END
>  <REMARK>
 VINA RESULT:      -7.9      5.455      7.910
  9 active torsions:
  status: ('A' for Active; 'I' for Inactive)
    1  A    between atoms: O_2  and  C_3 
    2  A    between atoms: C_4  and  N_5 
    3  A    between atoms: N_5  and  C_7 
    4  A    between atoms: C_13  and  N_14 
    5  A    between atoms: N_14  and  C_16 
    6  A    between atoms: C_21  and  S_22 
    7  A    between atoms: S_22  and  C_25 
    8  A    between atoms: C_32  and  N_33 
    9  A    between atoms: C_36  and  N_37 

>  <TORSDO>
F 9

$$$$
resistance_project/docking/8faf60323ce63d5a/P00533_T790M/docked/molecule_0004_out.pdbqt
 OpenBabel09142609533D

 84 88  0  0  1  0  0  0  0  0999 V2000
  -48.9550   -1.3220  -17.9770 C   0  0  1  0  0  0  0  0  0  0  0  0
  -48.2440   -2.4740  -17.9260 N   0  0  0  0  0  0  0  0  0  0  0  0
  -47.4510   -2.5760  -17.2930 H   0  0  0  0  0  0  0  0  0  0  0  0
  -48.6200   -3.4780  -18.7330 C   0  0  0  0  0  0  0  0  0  0  0  0
  -49.6880   -3.3390  -19.5830 C   0  0  0  0  0  0  0  0  0  0  0  0
  -50.0770   -4.7060  -20.6100 Cl  0  0  0  0  0  0  0  0  0  0  0  0
  -50.4220   -2.1460  -19.6360 C   0  0  1  0  0  0  0  0  0  0  0  0
  -49.9990   -1.1800  -18.8060 N   0  0  0  0  0  0  0  0  0  0  0  0
  -50.4980   -0.2910  -18.8060 H   0  0  0  0  0  0  0  0  0  0  0  0
  -48.6490   -0.1960  -17.1480 N   0  0  0  0  0  0  0  0  0  0  0  0
  -47.9930    0.5060  -17.4890 H   0  0  0  0  0  0  0  0  0  0  0  0
  -49.2340   -0.0280  -15.8630 C   0  0  0  0  0  0  0  0  0  0  0  0
  -50.4230    0.6450  -15.7200 C   0  0  0  0  0  0  0  0  0  0  0  0
  -50.9830    0.7770  -14.4620 C   0  0  0  0  0  0  0  0  0  0  0  0
  -50.3310    0.2230  -13.3520 C   0  0  0  0  0  0  0  0  0  0  0  0
  -49.1280   -0.4570  -13.4890 C   0  0  0  0  0  0  0  0  0  0  0  0
  -48.5680   -0.5860  -14.7650 C   0  0  0  0  0  0  0  0  0  0  0  0
  -51.1030    1.2060  -16.7860 O   0  0  0  0  0  0  0  0  0  0  0  0
  -51.9760    2.3080  -16.6560 C   0  0  0  0  0  0  0  0  0  0  0  0
  -50.9780    0.3860  -12.0880 N   0  0  0  0  0  0  0  0  0  0  0  0
  -52.4200    0.3590  -11.9360 C   0  0  0  0  0  0  0  0  0  0  0  0
  -52.7210   -0.3830  -10.6590 C   0  0  0  0  0  0  0  0  0  0  0  0
  -51.6370   -1.2550  -10.1670 C   0  0  2  0  0  0  0  0  0  0  0  0
  -50.2750   -0.6950  -10.1150 C   0  0  0  0  0  0  0  0  0  0  0  0
  -50.0870    0.5680  -10.9240 C   0  0  0  0  0  0  0  0  0  0  0  0
  -51.8070   -2.6470  -10.2280 N   0  0  0  0  0  0  0  0  0  0  0  0
  -50.6640   -3.4450  -10.5100 C   0  0  0  0  0  0  0  0  0  0  0  0
  -50.4690   -3.7320  -11.9850 C   0  0  0  0  0  0  0  0  0  0  0  0
  -51.6640   -3.2390  -12.6770 N   0  0  0  0  0  0  0  0  0  0  0  0
  -51.6170   -3.6960  -14.0340 C   0  0  0  0  0  0  0  0  0  0  0  0
  -52.8000   -3.8940  -12.0070 C   0  0  0  0  0  0  0  0  0  0  0  0
  -53.0520   -3.0850  -10.7520 C   0  0  0  0  0  0  0  0  0  0  0  0
  -51.4740   -2.0820  -20.5340 N   0  0  0  0  0  0  0  0  0  0  0  0
  -52.0920   -2.8930  -20.5180 H   0  0  0  0  0  0  0  0  0  0  0  0
  -51.8380   -1.0910  -21.4670 C   0  0  0  0  0  0  0  0  0  0  0  0
  -52.5000    0.0110  -20.8800 C   0  0  0  0  0  0  0  0  0  0  0  0
  -52.8980    1.0310  -21.6680 C   0  0  0  0  0  0  0  0  0  0  0  0
  -52.6530    0.9770  -23.0120 C   0  0  0  0  0  0  0  0  0  0  0  0
  -52.0150   -0.0740  -23.5880 C   0  0  0  0  0  0  0  0  0  0  0  0
  -51.5880   -1.1420  -22.8150 C   0  0  0  0  0  0  0  0  0  0  0  0
  -50.6880   -2.3830  -23.6220 S   0  0  0  0  0  0  0  0  0  0  0  0
  -51.4670   -3.6940  -23.5140 O   0  0  0  0  0  0  0  0  0  0  0  0
  -49.3520   -2.5460  -23.0150 O   0  0  0  0  0  0  0  0  0  0  0  0
  -50.5150   -1.9870  -25.3350 C   0  0  0  0  0  0  0  0  0  0  0  0
  -49.1810   -2.4510  -25.8310 C   0  0  0  0  0  0  0  0  0  0  0  0
  -51.6250   -2.6290  -26.1470 C   0  0  0  0  0  0  0  0  0  0  0  0
  -48.0980   -4.3681  -18.7140 H   0  0  0  0  0  0  0  0  0  0  0  0
  -51.8757    1.2805  -14.3416 H   0  0  0  0  0  0  0  0  0  0  0  0
  -48.6555   -0.8599  -12.6647 H   0  0  0  0  0  0  0  0  0  0  0  0
  -47.6749   -1.0864  -14.8951 H   0  0  0  0  0  0  0  0  0  0  0  0
  -52.3798    2.5582  -17.6148 H   0  0  0  0  0  0  0  0  0  0  0  0
  -51.4369    3.1461  -16.2664 H   0  0  0  0  0  0  0  0  0  0  0  0
  -52.7729    2.0549  -15.9884 H   0  0  0  0  0  0  0  0  0  0  0  0
  -52.8666   -0.1458  -12.7670 H   0  0  0  0  0  0  0  0  0  0  0  0
  -52.8163    1.3523  -11.9000 H   0  0  0  0  0  0  0  0  0  0  0  0
  -53.5851   -0.9916  -10.8259 H   0  0  0  0  0  0  0  0  0  0  0  0
  -52.8631    0.3656   -9.9078 H   0  0  0  0  0  0  0  0  0  0  0  0
  -51.8473   -1.1915   -9.1198 H   0  0  0  0  0  0  0  0  0  0  0  0
  -50.0421   -0.4759   -9.0939 H   0  0  0  0  0  0  0  0  0  0  0  0
  -49.6262   -1.4306  -10.5427 H   0  0  0  0  0  0  0  0  0  0  0  0
  -50.3740    1.4287  -10.3568 H   0  0  0  0  0  0  0  0  0  0  0  0
  -49.0675    0.7260  -11.2079 H   0  0  0  0  0  0  0  0  0  0  0  0
  -49.7970   -2.9327  -10.1482 H   0  0  0  0  0  0  0  0  0  0  0  0
  -50.8139   -4.3873  -10.0257 H   0  0  0  0  0  0  0  0  0  0  0  0
  -49.5990   -3.2248  -12.3466 H   0  0  0  0  0  0  0  0  0  0  0  0
  -50.3322   -4.7793  -12.1564 H   0  0  0  0  0  0  0  0  0  0  0  0
  -52.4819   -3.3466  -14.5582 H   0  0  0  0  0  0  0  0  0  0  0  0
  -51.5984   -4.7657  -14.0497 H   0  0  0  0  0  0  0  0  0  0  0  0
  -50.7356   -3.3170  -14.5077 H   0  0  0  0  0  0  0  0  0  0  0  0
  -52.5542   -4.9049  -11.7570 H   0  0  0  0  0  0  0  0  0  0  0  0
  -53.6647   -3.9295  -12.6362 H   0  0  0  0  0  0  0  0  0  0  0  0
  -53.5525   -3.6929  -10.0275 H   0  0  0  0  0  0  0  0  0  0  0  0
  -53.6651   -2.2392  -10.9835 H   0  0  0  0  0  0  0  0  0  0  0  0
  -52.6763    0.0351  -19.8635 H   0  0  0  0  0  0  0  0  0  0  0  0
  -53.3833    1.8452  -21.2598 H   0  0  0  0  0  0  0  0  0  0  0  0
  -52.9630    1.7604  -23.6079 H   0  0  0  0  0  0  0  0  0  0  0  0
  -51.8472   -0.0775  -24.6063 H   0  0  0  0  0  0  0  0  0  0  0  0
  -50.5836   -0.9254  -25.4496 H   0  0  0  0  0  0  0  0  0  0  0  0
  -49.1081   -3.5125  -25.7182 H   0  0  0  0  0  0  0  0  0  0  0  0
  -48.4058   -1.9781  -25.2650 H   0  0  0  0  0  0  0  0  0  0  0  0
  -49.0756   -2.1940  -26.8643 H   0  0  0  0  0  0  0  0  0  0  0  0
  -51.5724   -3.6928  -26.0446 H   0  0  0  0  0  0  0  0  0  0  0  0
  -51.5122   -2.3639  -27.1775 H   0  0  0  0  0  0  0  0  0  0  0  0
  -52.5730   -2.2829  -25.7914 H   0  0  0  0  0  0  0  0  0  0  0  0
  1  2  1  0  0  0  0
  1 10  1  1  0  0  0
  2  3  1  0  0  0  0
  4  2  1  0  0  0  0
  4 47  1  0  0  0  0
  5  4  2  0  0  0  0
  6  5  1  0  0  0  0
  7 33  1  6  0  0  0
  7  5  1  0  0  0  0
  7  8  1  0  0  0  0
  8  1  1  0  0  0  0
  9  8  1  0  0  0  0
 10 12  1  0  0  0  0
 11 10  1  0  0  0  0
 12 13  2  0  0  0  0
 12 17  1  0  0  0  0
 13 14  1  0  0  0  0
 14 15  2  0  0  0  0
 14 48  1  0  0  0  0
 15 20  1  0  0  0  0
 16 15  1  0  0  0  0
 16 49  1  0  0  0  0
 17 16  2  0  0  0  0
 17 50  1  0  0  0  0
 18 19  1  0  0  0  0
 18 13  1  0  0  0  0
 19 51  1  0  0  0  0
 19 52  1  0  0  0  0
 19 53  1  0  0  0  0
 20 21  1  0  0  0  0
 20 25  1  0  0  0  0
 21 22  1  0  0  0  0
 21 54  1  0  0  0  0
 21 55  1  0  0  0  0
 22 23  1  0  0  0  0
 22 56  1  0  0  0  0
 22 57  1  0  0  0  0
 23 24  1  0  0  0  0
 23 58  1  1  0  0  0
 24 59  1  0  0  0  0
 24 60  1  0  0  0  0
 25 24  1  0  0  0  0
 25 61  1  0  0  0  0
 25 62  1  0  0  0  0
 26 23  1  0  0  0  0
 27 26  1  0  0  0  0
 27 63  1  0  0  0  0
 27 64  1  0  0  0  0
 28 27  1  0  0  0  0
 28 65  1  0  0  0  0
 28 66  1  0  0  0  0
 29 31  1  0  0  0  0
 29 28  1  0  0  0  0
 30 29  1  0  0  0  0
 30 67  1  0  0  0  0
 30 68  1  0  0  0  0
 30 69  1  0  0  0  0
 31 32  1  0  0  0  0
 31 70  1  0  0  0  0
 31 71  1  0  0  0  0
 32 26  1  0  0  0  0
 32 72  1  0  0  0  0
 32 73  1  0  0  0  0
 33 34  1  0  0  0  0
 35 36  1  0  0  0  0
 35 33  1  0  0  0  0
 36 74  1  0  0  0  0
 37 36  2  0  0  0  0
 37 75  1  0  0  0  0
 38 37  1  0  0  0  0
 38 76  1  0  0  0  0
 39 38  2  0  0  0  0
 39 40  1  0  0  0  0
 39 77  1  0  0  0  0
 40 35  2  0  0  0  0
 41 42  2  0  0  0  0
 41 43  2  0  0  0  0
 41 40  1  0  0  0  0
 44 41  1  0  0  0  0
 44 78  1  0  0  0  0
 45 44  1  0  0  0  0
 45 79  1  0  0  0  0
 45 80  1  0  0  0  0
 45 81  1  0  0  0  0
 46 44  1  0  0  0  0
 46 82  1  0  0  0  0
 46 83  1  0  0  0  0
 46 84  1  0  0  0  0
M  END
>  <REMARK>
 VINA RESULT:      -7.8      3.669      9.426
  9 active torsions:
  status: ('A' for Active; 'I' for Inactive)
    1  A    between atoms: O_2  and  C_3 
    2  A    between atoms: C_4  and  N_5 
    3  A    between atoms: N_5  and  C_7 
    4  A    between atoms: C_13  and  N_14 
    5  A    between atoms: N_14  and  C_16 
    6  A    between atoms: C_21  and  S_22 
    7  A    between atoms: S_22  and  C_25 
    8  A    between atoms: C_32  and  N_33 
    9  A    between atoms: C_36  and  N_37 

>  <TORSDO>
F 9

$$$$
resistance_project/docking/8faf60323ce63d5a/P00533_T790M/docked/molecule_0004_out.pdbqt
 OpenBabel09142609533D

 84 88  0  0  1  0  0  0  0  0999 V2000
  -49.2650   -3.4190  -18.2730 C   0  0  1  0  0  0  0  0  0  0  0  0
  -49.4940   -3.4070  -16.9380 N   0  0  0  0  0  0  0  0  0  0  0  0
  -49.3460   -4.2420  -16.3700 H   0  0  0  0  0  0  0  0  0  0  0  0
  -49.9180   -2.2600  -16.3860 C   0  0  0  0  0  0  0  0  0  0  0  0
  -50.1150   -1.1390  -17.1510 C   0  0  0  0  0  0  0  0  0  0  0  0
  -50.6930    0.2990  -16.3300 Cl  0  0  0  0  0  0  0  0  0  0  0  0
  -49.8790   -1.1530  -18.5320 C   0  0  1  0  0  0  0  0  0  0  0  0
  -49.4570   -2.3270  -19.0260 N   0  0  0  0  0  0  0  0  0  0  0  0
  -49.2720   -2.3920  -20.0260 H   0  0  0  0  0  0  0  0  0  0  0  0
  -48.7960   -4.5850  -18.9580 N   0  0  0  0  0  0  0  0  0  0  0  0
  -48.5440   -5.4110  -18.4150 H   0  0  0  0  0  0  0  0  0  0  0  0
  -48.6710   -4.6260  -20.3740 C   0  0  0  0  0  0  0  0  0  0  0  0
  -47.6690   -3.9320  -21.0060 C   0  0  0  0  0  0  0  0  0  0  0  0
  -47.5550   -4.0050  -22.3840 C   0  0  0  0  0  0  0  0  0  0  0  0
  -48.4620   -4.7860  -23.1130 C   0  0  0  0  0  0  0  0  0  0  0  0
  -49.4780   -5.4900  -22.4790 C   0  0  0  0  0  0  0  0  0  0  0  0
  -49.5870   -5.4100  -21.0870 C   0  0  0  0  0  0  0  0  0  0  0  0
  -46.7510   -3.1500  -20.3290 O   0  0  0  0  0  0  0  0  0  0  0  0
  -45.4030   -3.5230  -20.1400 C   0  0  0  0  0  0  0  0  0  0  0  0
  -48.2710   -4.8260  -24.5280 N   0  0  0  0  0  0  0  0  0  0  0  0
  -48.8260   -3.8280  -25.4230 C   0  0  0  0  0  0  0  0  0  0  0  0
  -47.7900   -3.5550  -26.4840 C   0  0  0  0  0  0  0  0  0  0  0  0
  -46.4100   -3.9410  -26.1320 C   0  0  2  0  0  0  0  0  0  0  0  0
  -46.1980   -5.2800  -25.5530 C   0  0  0  0  0  0  0  0  0  0  0  0
  -47.4540   -5.9450  -25.0400 C   0  0  0  0  0  0  0  0  0  0  0  0
  -45.4630   -2.9320  -25.8970 N   0  0  0  0  0  0  0  0  0  0  0  0
  -45.6170   -1.7000  -26.5920 C   0  0  0  0  0  0  0  0  0  0  0  0
  -44.8690   -1.6450  -27.9080 C   0  0  0  0  0  0  0  0  0  0  0  0
  -44.0350   -2.8490  -27.9760 N   0  0  0  0  0  0  0  0  0  0  0  0
  -43.1480   -2.7170  -29.0940 C   0  0  0  0  0  0  0  0  0  0  0  0
  -43.2310   -2.8360  -26.7430 C   0  0  0  0  0  0  0  0  0  0  0  0
  -44.1380   -3.3860  -25.6620 C   0  0  0  0  0  0  0  0  0  0  0  0
  -50.1200    0.0160  -19.2350 N   0  0  0  0  0  0  0  0  0  0  0  0
  -49.3290    0.6580  -19.2690 H   0  0  0  0  0  0  0  0  0  0  0  0
  -51.2690    0.4730  -19.9090 C   0  0  0  0  0  0  0  0  0  0  0  0
  -51.8750    1.5880  -19.2860 C   0  0  0  0  0  0  0  0  0  0  0  0
  -52.9830    2.1240  -19.8370 C   0  0  0  0  0  0  0  0  0  0  0  0
  -53.4940    1.5800  -20.9820 C   0  0  0  0  0  0  0  0  0  0  0  0
  -52.9220    0.5100  -21.5920 C   0  0  0  0  0  0  0  0  0  0  0  0
  -51.7810   -0.0700  -21.0600 C   0  0  0  0  0  0  0  0  0  0  0  0
  -51.0610   -1.3580  -21.9680 S   0  0  0  0  0  0  0  0  0  0  0  0
  -51.3900   -2.6800  -21.2750 O   0  0  0  0  0  0  0  0  0  0  0  0
  -49.5970   -1.1900  -22.0530 O   0  0  0  0  0  0  0  0  0  0  0  0
  -51.7460   -1.4050  -23.5960 C   0  0  0  0  0  0  0  0  0  0  0  0
  -50.8170   -0.7310  -24.5580 C   0  0  0  0  0  0  0  0  0  0  0  0
  -51.9940   -2.8390  -24.0300 C   0  0  0  0  0  0  0  0  0  0  0  0
  -50.0986   -2.2207  -15.3707 H   0  0  0  0  0  0  0  0  0  0  0  0
  -46.8068   -3.4875  -22.8712 H   0  0  0  0  0  0  0  0  0  0  0  0
  -50.1407   -6.0620  -23.0256 H   0  0  0  0  0  0  0  0  0  0  0  0
  -50.3332   -5.9223  -20.5912 H   0  0  0  0  0  0  0  0  0  0  0  0
  -44.8952   -2.7586  -19.5899 H   0  0  0  0  0  0  0  0  0  0  0  0
  -44.9314   -3.6505  -21.0920 H   0  0  0  0  0  0  0  0  0  0  0  0
  -45.3605   -4.4428  -19.5949 H   0  0  0  0  0  0  0  0  0  0  0  0
  -49.7233   -4.1980  -25.8734 H   0  0  0  0  0  0  0  0  0  0  0  0
  -49.0686   -2.9326  -24.8898 H   0  0  0  0  0  0  0  0  0  0  0  0
  -48.0694   -4.0938  -27.3652 H   0  0  0  0  0  0  0  0  0  0  0  0
  -47.7755   -2.4934  -26.6171 H   0  0  0  0  0  0  0  0  0  0  0  0
  -46.0528   -4.1617  -27.1162 H   0  0  0  0  0  0  0  0  0  0  0  0
  -45.5117   -5.1869  -24.7374 H   0  0  0  0  0  0  0  0  0  0  0  0
  -45.8262   -5.8986  -26.3430 H   0  0  0  0  0  0  0  0  0  0  0  0
  -47.2246   -6.6371  -24.2569 H   0  0  0  0  0  0  0  0  0  0  0  0
  -47.9583   -6.5090  -25.7966 H   0  0  0  0  0  0  0  0  0  0  0  0
  -46.6582   -1.5512  -26.7889 H   0  0  0  0  0  0  0  0  0  0  0  0
  -45.2060   -0.9351  -25.9668 H   0  0  0  0  0  0  0  0  0  0  0  0
  -45.5610   -1.6305  -28.7240 H   0  0  0  0  0  0  0  0  0  0  0  0
  -44.2699   -0.7607  -27.9707 H   0  0  0  0  0  0  0  0  0  0  0  0
  -43.7146   -2.7243  -30.0016 H   0  0  0  0  0  0  0  0  0  0  0  0
  -42.4562   -3.5333  -29.0988 H   0  0  0  0  0  0  0  0  0  0  0  0
  -42.6109   -1.7948  -29.0163 H   0  0  0  0  0  0  0  0  0  0  0  0
  -42.9281   -1.8378  -26.5047 H   0  0  0  0  0  0  0  0  0  0  0  0
  -42.3383   -3.4169  -26.8454 H   0  0  0  0  0  0  0  0  0  0  0  0
  -43.8052   -3.0423  -24.7049 H   0  0  0  0  0  0  0  0  0  0  0  0
  -44.1134   -4.4556  -25.6782 H   0  0  0  0  0  0  0  0  0  0  0  0
  -51.4752    1.9861  -18.4219 H   0  0  0  0  0  0  0  0  0  0  0  0
  -53.4411    2.9379  -19.3979 H   0  0  0  0  0  0  0  0  0  0  0  0
  -54.3425    1.9961  -21.3967 H   0  0  0  0  0  0  0  0  0  0  0  0
  -53.3385    0.1272  -22.4551 H   0  0  0  0  0  0  0  0  0  0  0  0
  -52.6821   -0.8868  -23.5885 H   0  0  0  0  0  0  0  0  0  0  0  0
  -49.8793   -1.2462  -24.5686 H   0  0  0  0  0  0  0  0  0  0  0  0
  -50.6632    0.2833  -24.2541 H   0  0  0  0  0  0  0  0  0  0  0  0
  -51.2447   -0.7486  -25.5386 H   0  0  0  0  0  0  0  0  0  0  0  0
  -51.0669   -3.3731  -24.0432 H   0  0  0  0  0  0  0  0  0  0  0  0
  -52.4235   -2.8458  -25.0100 H   0  0  0  0  0  0  0  0  0  0  0  0
  -52.6663   -3.3085  -23.3426 H   0  0  0  0  0  0  0  0  0  0  0  0
  1 10  1  1  0  0  0
  1  2  1  0  0  0  0
  2  4  1  0  0  0  0
  2  3  1  0  0  0  0
  4 47  1  0  0  0  0
  5  4  2  0  0  0  0
  5  6  1  0  0  0  0
  7 33  1  6  0  0  0
  7  5  1  0  0  0  0
  8  7  1  0  0  0  0
  8  1  1  0  0  0  0
  9  8  1  0  0  0  0
 10 11  1  0  0  0  0
 12 10  1  0  0  0  0
 13 12  1  0  0  0  0
 13 18  1  0  0  0  0
 14 13  2  0  0  0  0
 14 48  1  0  0  0  0
 15 16  2  0  0  0  0
 15 14  1  0  0  0  0
 16 17  1  0  0  0  0
 16 49  1  0  0  0  0
 17 12  2  0  0  0  0
 17 50  1  0  0  0  0
 18 19  1  0  0  0  0
 19 51  1  0  0  0  0
 19 52  1  0  0  0  0
 19 53  1  0  0  0  0
 20 15  1  0  0  0  0
 21 20  1  0  0  0  0
 21 54  1  0  0  0  0
 21 55  1  0  0  0  0
 22 23  1  0  0  0  0
 22 21  1  0  0  0  0
 22 56  1  0  0  0  0
 22 57  1  0  0  0  0
 23 26  1  0  0  0  0
 23 24  1  0  0  0  0
 23 58  1  6  0  0  0
 24 25  1  0  0  0  0
 24 59  1  0  0  0  0
 24 60  1  0  0  0  0
 25 20  1  0  0  0  0
 25 61  1  0  0  0  0
 25 62  1  0  0  0  0
 26 32  1  0  0  0  0
 27 26  1  0  0  0  0
 27 63  1  0  0  0  0
 27 64  1  0  0  0  0
 28 27  1  0  0  0  0
 28 65  1  0  0  0  0
 28 66  1  0  0  0  0
 29 28  1  0  0  0  0
 29 31  1  0  0  0  0
 30 29  1  0  0  0  0
 30 67  1  0  0  0  0
 30 68  1  0  0  0  0
 30 69  1  0  0  0  0
 31 32  1  0  0  0  0
 31 70  1  0  0  0  0
 31 71  1  0  0  0  0
 32 72  1  0  0  0  0
 32 73  1  0  0  0  0
 34 33  1  0  0  0  0
 35 36  2  0  0  0  0
 35 33  1  0  0  0  0
 36 74  1  0  0  0  0
 37 36  1  0  0  0  0
 37 75  1  0  0  0  0
 38 37  2  0  0  0  0
 38 76  1  0  0  0  0
 39 40  2  0  0  0  0
 39 38  1  0  0  0  0
 39 77  1  0  0  0  0
 40 35  1  0  0  0  0
 41 42  2  0  0  0  0
 41 40  1  0  0  0  0
 43 41  2  0  0  0  0
 44 41  1  0  0  0  0
 44 78  1  0  0  0  0
 45 44  1  0  0  0  0
 45 79  1  0  0  0  0
 45 80  1  0  0  0  0
 45 81  1  0  0  0  0
 46 44  1  0  0  0  0
 46 82  1  0  0  0  0
 46 83  1  0  0  0  0
 46 84  1  0  0  0  0
M  END
>  <REMARK>
 VINA RESULT:      -7.8      4.600      8.316
  9 active torsions:
  status: ('A' for Active; 'I' for Inactive)
    1  A    between atoms: O_2  and  C_3 
    2  A    between atoms: C_4  and  N_5 
    3  A    between atoms: N_5  and  C_7 
    4  A    between atoms: C_13  and  N_14 
    5  A    between atoms: N_14  and  C_16 
    6  A    between atoms: C_21  and  S_22 
    7  A    between atoms: S_22  and  C_25 
    8  A    between atoms: C_32  and  N_33 
    9  A    between atoms: C_36  and  N_37 

>  <TORSDO>
F 9

$$$$
resistance_project/docking/8faf60323ce63d5a/P00533_T790M/docked/molecule_0004_out.pdbqt
 OpenBabel09142609533D

 84 88  0  0  1  0  0  0  0  0999 V2000
  -51.6330    0.1230  -22.8660 C   0  0  1  0  0  0  0  0  0  0  0  0
  -52.6210    0.5830  -23.6700 N   0  0  0  0  0  0  0  0  0  0  0  0
  -53.2060    1.3700  -23.3910 H   0  0  0  0  0  0  0  0  0  0  0  0
  -52.8040   -0.0310  -24.8500 C   0  0  0  0  0  0  0  0  0  0  0  0
  -52.0160   -1.0890  -25.2250 C   0  0  0  0  0  0  0  0  0  0  0  0
  -52.3570   -1.8300  -26.7770 Cl  0  0  0  0  0  0  0  0  0  0  0  0
  -50.9950   -1.5640  -24.3910 C   0  0  0  0  0  0  0  0  0  0  0  0
  -50.8600   -0.9110  -23.2270 N   0  0  0  0  0  0  0  0  0  0  0  0
  -50.1330   -1.2180  -22.5820 H   0  0  0  0  0  0  0  0  0  0  0  0
  -51.3430    0.7160  -21.5950 N   0  0  0  0  0  0  0  0  0  0  0  0
  -51.5680    1.7000  -21.4450 H   0  0  0  0  0  0  0  0  0  0  0  0
  -50.7520   -0.0270  -20.5370 C   0  0  0  0  0  0  0  0  0  0  0  0
  -51.4780   -0.9760  -19.8600 C   0  0  0  0  0  0  0  0  0  0  0  0
  -50.8730   -1.7010  -18.8480 C   0  0  0  0  0  0  0  0  0  0  0  0
  -49.5310   -1.4570  -18.5280 C   0  0  0  0  0  0  0  0  0  0  0  0
  -48.7910   -0.4970  -19.2080 C   0  0  0  0  0  0  0  0  0  0  0  0
  -49.4100    0.2320  -20.2300 C   0  0  0  0  0  0  0  0  0  0  0  0
  -52.8040   -1.2530  -20.1410 O   0  0  0  0  0  0  0  0  0  0  0  0
  -53.8620   -0.3690  -19.8400 C   0  0  0  0  0  0  0  0  0  0  0  0
  -48.9710   -2.2550  -17.4840 N   0  0  0  0  0  0  0  0  0  0  0  0
  -47.6100   -2.0850  -17.0100 C   0  0  0  0  0  0  0  0  0  0  0  0
  -47.6330   -2.2560  -15.5130 C   0  0  0  0  0  0  0  0  0  0  0  0
  -48.9540   -2.0770  -14.8790 C   0  0  2  0  0  0  0  0  0  0  0  0
  -50.1060   -2.7690  -15.4830 C   0  0  0  0  0  0  0  0  0  0  0  0
  -49.8680   -3.2670  -16.8900 C   0  0  0  0  0  0  0  0  0  0  0  0
  -49.1730   -0.9440  -14.0800 N   0  0  0  0  0  0  0  0  0  0  0  0
  -50.5090   -0.6600  -13.6800 C   0  0  0  0  0  0  0  0  0  0  0  0
  -51.2440    0.2660  -14.6260 C   0  0  0  0  0  0  0  0  0  0  0  0
  -50.2610    0.7540  -15.5980 N   0  0  0  0  0  0  0  0  0  0  0  0
  -50.8670    1.8030  -16.3630 C   0  0  0  0  0  0  0  0  0  0  0  0
  -49.1740    1.3370  -14.7940 C   0  0  0  0  0  0  0  0  0  0  0  0
  -48.3250    0.1630  -14.3490 C   0  0  0  0  0  0  0  0  0  0  0  0
  -50.2570   -2.6480  -24.8360 N   0  0  0  0  0  0  0  0  0  0  0  0
  -50.7720   -3.2880  -25.4410 H   0  0  0  0  0  0  0  0  0  0  0  0
  -48.9200   -3.0220  -24.5980 C   0  0  0  0  0  0  0  0  0  0  0  0
  -48.0020   -2.3930  -25.4690 C   0  0  0  0  0  0  0  0  0  0  0  0
  -46.6870   -2.6630  -25.3420 C   0  0  0  0  0  0  0  0  0  0  0  0
  -46.2720   -3.5370  -24.3760 C   0  0  0  0  0  0  0  0  0  0  0  0
  -47.1430   -4.1470  -23.5310 C   0  0  0  0  0  0  0  0  0  0  0  0
  -48.5020   -3.8950  -23.6270 C   0  0  0  0  0  0  0  0  0  0  0  0
  -49.5220   -4.6330  -22.4350 S   0  0  0  0  0  0  0  0  0  0  0  0
  -50.4780   -5.5920  -23.1450 O   0  0  0  0  0  0  0  0  0  0  0  0
  -50.2940   -3.6140  -21.6970 O   0  0  0  0  0  0  0  0  0  0  0  0
  -48.5440   -5.5710  -21.3020 C   0  0  0  0  0  0  0  0  0  0  0  0
  -48.6640   -4.9900  -19.9270 C   0  0  0  0  0  0  0  0  0  0  0  0
  -48.9820   -7.0250  -21.2930 C   0  0  0  0  0  0  0  0  0  0  0  0
  -53.8132   -0.3865  -24.8548 H   0  0  0  0  0  0  0  0  0  0  0  0
  -51.4075   -2.4173  -18.3320 H   0  0  0  0  0  0  0  0  0  0  0  0
  -47.8032   -0.3248  -18.9639 H   0  0  0  0  0  0  0  0  0  0  0  0
  -48.8843    0.9513  -20.7508 H   0  0  0  0  0  0  0  0  0  0  0  0
  -54.7891   -0.8034  -20.1509 H   0  0  0  0  0  0  0  0  0  0  0  0
  -53.7111    0.5564  -20.3555 H   0  0  0  0  0  0  0  0  0  0  0  0
  -53.8880   -0.1898  -18.7854 H   0  0  0  0  0  0  0  0  0  0  0  0
  -47.2539   -1.1079  -17.2616 H   0  0  0  0  0  0  0  0  0  0  0  0
  -46.9582   -2.8022  -17.4635 H   0  0  0  0  0  0  0  0  0  0  0  0
  -46.9621   -1.5390  -15.0878 H   0  0  0  0  0  0  0  0  0  0  0  0
  -47.3496   -3.2707  -15.3262 H   0  0  0  0  0  0  0  0  0  0  0  0
  -48.8220   -2.7406  -14.0501 H   0  0  0  0  0  0  0  0  0  0  0  0
  -50.3518   -3.6092  -14.8678 H   0  0  0  0  0  0  0  0  0  0  0  0
  -50.8965   -2.0504  -15.5432 H   0  0  0  0  0  0  0  0  0  0  0  0
  -49.4000   -4.2291  -16.8782 H   0  0  0  0  0  0  0  0  0  0  0  0
  -50.7765   -3.3852  -17.4427 H   0  0  0  0  0  0  0  0  0  0  0  0
  -51.0481   -1.5826  -13.6236 H   0  0  0  0  0  0  0  0  0  0  0  0
  -50.4531   -0.1613  -12.7350 H   0  0  0  0  0  0  0  0  0  0  0  0
  -52.0247   -0.2660  -15.1284 H   0  0  0  0  0  0  0  0  0  0  0  0
  -51.6910    1.0795  -14.0937 H   0  0  0  0  0  0  0  0  0  0  0  0
  -50.1642    2.1735  -17.0797 H   0  0  0  0  0  0  0  0  0  0  0  0
  -51.1615    2.5970  -15.7090 H   0  0  0  0  0  0  0  0  0  0  0  0
  -51.7278    1.4220  -16.8716 H   0  0  0  0  0  0  0  0  0  0  0  0
  -49.5720    1.8535  -13.9456 H   0  0  0  0  0  0  0  0  0  0  0  0
  -48.6044    2.0493  -15.3536 H   0  0  0  0  0  0  0  0  0  0  0  0
  -47.7856    0.4256  -13.4630 H   0  0  0  0  0  0  0  0  0  0  0  0
  -47.6290   -0.0933  -15.1203 H   0  0  0  0  0  0  0  0  0  0  0  0
  -48.3335   -1.7359  -26.1925 H   0  0  0  0  0  0  0  0  0  0  0  0
  -46.0003   -2.2141  -25.9681 H   0  0  0  0  0  0  0  0  0  0  0  0
  -45.2641   -3.7398  -24.2860 H   0  0  0  0  0  0  0  0  0  0  0  0
  -46.7910   -4.8010  -22.8144 H   0  0  0  0  0  0  0  0  0  0  0  0
  -47.5218   -5.5284  -21.6153 H   0  0  0  0  0  0  0  0  0  0  0  0
  -49.6853   -5.0310  -19.6104 H   0  0  0  0  0  0  0  0  0  0  0  0
  -48.3353   -3.9718  -19.9401 H   0  0  0  0  0  0  0  0  0  0  0  0
  -48.0572   -5.5520  -19.2481 H   0  0  0  0  0  0  0  0  0  0  0  0
  -50.0038   -7.0878  -20.9816 H   0  0  0  0  0  0  0  0  0  0  0  0
  -48.3675   -7.5784  -20.6140 H   0  0  0  0  0  0  0  0  0  0  0  0
  -48.8833   -7.4333  -22.2771 H   0  0  0  0  0  0  0  0  0  0  0  0
  1 10  1  6  0  0  0
  2  3  1  0  0  0  0
  2  1  1  0  0  0  0
  4  2  1  0  0  0  0
  4 47  1  0  0  0  0
  5  4  1  0  0  0  0
  5  7  2  0  0  0  0
  6  5  1  0  0  0  0
  7  8  1  0  0  0  0
  8  1  1  0  0  0  0
  8  9  1  0  0  0  0
 10 11  1  0  0  0  0
 10 12  1  0  0  0  0
 12 17  2  0  0  0  0
 12 13  1  0  0  0  0
 13 14  2  0  0  0  0
 14 15  1  0  0  0  0
 14 48  1  0  0  0  0
 15 20  1  0  0  0  0
 16 15  2  0  0  0  0
 16 49  1  0  0  0  0
 17 16  1  0  0  0  0
 17 50  1  0  0  0  0
 18 13  1  0  0  0  0
 18 19  1  0  0  0  0
 19 51  1  0  0  0  0
 19 52  1  0  0  0  0
 19 53  1  0  0  0  0
 20 21  1  0  0  0  0
 20 25  1  0  0  0  0
 21 22  1  0  0  0  0
 21 54  1  0  0  0  0
 21 55  1  0  0  0  0
 22 23  1  0  0  0  0
 22 56  1  0  0  0  0
 22 57  1  0  0  0  0
 23 26  1  0  0  0  0
 23 58  1  1  0  0  0
 24 23  1  0  0  0  0
 24 59  1  0  0  0  0
 24 60  1  0  0  0  0
 25 24  1  0  0  0  0
 25 61  1  0  0  0  0
 25 62  1  0  0  0  0
 26 27  1  0  0  0  0
 27 63  1  0  0  0  0
 27 64  1  0  0  0  0
 28 27  1  0  0  0  0
 28 65  1  0  0  0  0
 28 66  1  0  0  0  0
 29 31  1  0  0  0  0
 29 28  1  0  0  0  0
 30 29  1  0  0  0  0
 30 67  1  0  0  0  0
 30 68  1  0  0  0  0
 30 69  1  0  0  0  0
 31 32  1  0  0  0  0
 31 70  1  0  0  0  0
 31 71  1  0  0  0  0
 32 26  1  0  0  0  0
 32 72  1  0  0  0  0
 32 73  1  0  0  0  0
 33 35  1  0  0  0  0
 33  7  1  0  0  0  0
 34 33  1  0  0  0  0
 35 40  2  0  0  0  0
 36 37  2  0  0  0  0
 36 35  1  0  0  0  0
 36 74  1  0  0  0  0
 37 38  1  0  0  0  0
 37 75  1  0  0  0  0
 38 39  2  0  0  0  0
 38 76  1  0  0  0  0
 39 77  1  0  0  0  0
 40 39  1  0  0  0  0
 40 41  1  0  0  0  0
 41 43  2  0  0  0  0
 41 44  1  0  0  0  0
 42 41  2  0  0  0  0
 44 46  1  0  0  0  0
 44 45  1  0  0  0  0
 44 78  1  0  0  0  0
 45 79  1  0  0  0  0
 45 80  1  0  0  0  0
 45 81  1  0  0  0  0
 46 82  1  0  0  0  0
 46 83  1  0  0  0  0
 46 84  1  0  0  0  0
M  END
>  <REMARK>
 VINA RESULT:      -7.8      4.269      9.180
  9 active torsions:
  status: ('A' for Active; 'I' for Inactive)
    1  A    between atoms: O_2  and  C_3 
    2  A    between atoms: C_4  and  N_5 
    3  A    between atoms: N_5  and  C_7 
    4  A    between atoms: C_13  and  N_14 
    5  A    between atoms: N_14  and  C_16 
    6  A    between atoms: C_21  and  S_22 
    7  A    between atoms: S_22  and  C_25 
    8  A    between atoms: C_32  and  N_33 
    9  A    between atoms: C_36  and  N_37 

>  <TORSDO>
F 9

$$$$
