resistance_project/docking/8faf60323ce63d5a/P00533_T790M/docked/molecule_0002_out.pdbqt
 OpenBabel09142609523D

 67 71  0  0  1  0  0  0  0  0999 V2000
  -49.6520   -0.9570  -21.3360 C   0  0  0  0  0  0  0  0  0  0  0  0
  -49.1340   -0.6490  -20.1030 C   0  0  0  0  0  0  0  0  0  0  0  0
  -48.3080   -1.4750  -19.3700 C   0  0  0  0  0  0  0  0  0  0  0  0
  -47.9770   -2.7020  -19.9120 C   0  0  0  0  0  0  0  0  0  0  0  0
  -48.4740   -3.0570  -21.1520 C   0  0  0  0  0  0  0  0  0  0  0  0
  -49.3000   -2.2030  -21.8590 C   0  0  0  0  0  0  0  0  0  0  0  0
  -47.8680   -1.0140  -18.1150 N   0  0  0  0  0  0  0  0  0  0  0  0
  -46.9150   -0.6560  -18.0510 H   0  0  0  0  0  0  0  0  0  0  0  0
  -48.6520   -1.0100  -16.9300 C   0  0  1  0  0  0  0  0  0  0  0  0
  -49.1130   -2.1480  -16.3680 N   0  0  0  0  0  0  0  0  0  0  0  0
  -49.8640   -2.1340  -15.2270 C   0  0  0  0  0  0  0  0  0  0  0  0
  -48.8940   -3.0430  -16.8070 H   0  0  0  0  0  0  0  0  0  0  0  0
  -50.1490   -0.8950  -14.6490 C   0  0  0  0  0  0  0  0  0  0  0  0
  -51.1070   -0.7830  -13.1810 Cl  0  0  0  0  0  0  0  0  0  0  0  0
  -49.6800    0.2670  -15.2210 C   0  0  0  0  0  0  0  0  0  0  0  0
  -48.9470    0.1810  -16.3410 N   0  0  0  0  0  0  0  0  0  0  0  0
  -48.5980    1.0390  -16.7680 H   0  0  0  0  0  0  0  0  0  0  0  0
  -49.9810    1.5530  -14.6020 C   0  0  0  0  0  0  0  0  0  0  0  0
  -50.8920    2.4900  -15.0270 C   0  0  0  0  0  0  0  0  0  0  0  0
  -51.7430    2.4900  -16.1120 C   0  0  0  0  0  0  0  0  0  0  0  0
  -50.8140    3.4960  -14.1390 N   0  0  0  0  0  0  0  0  0  0  0  0
  -52.5560    3.6020  -16.2760 C   0  0  0  0  0  0  0  0  0  0  0  0
  -52.4970    4.6500  -15.3810 C   0  0  0  0  0  0  0  0  0  0  0  0
  -51.6140    4.5830  -14.3080 C   0  0  0  0  0  0  0  0  0  0  0  0
  -49.9320    3.2560  -13.2050 N   0  0  0  0  0  0  0  0  0  0  0  0
  -49.3960    2.0600  -13.4600 C   0  0  0  0  0  0  0  0  0  0  0  0
  -49.6970    3.8700  -12.4240 H   0  0  0  0  0  0  0  0  0  0  0  0
  -47.1450   -3.5280  -19.1690 O   0  0  0  0  0  0  0  0  0  0  0  0
  -47.6750   -4.7640  -18.6720 C   0  0  0  0  0  0  0  0  0  0  0  0
  -50.5070   -0.0830  -22.0710 N   0  0  0  0  0  0  0  0  0  0  0  0
  -51.8920   -0.0090  -21.6760 C   0  0  0  0  0  0  0  0  0  0  0  0
  -52.3640   -0.7290  -20.7640 O   0  0  0  0  0  0  0  0  0  0  0  0
  -50.1500    0.4720  -22.8490 H   0  0  0  0  0  0  0  0  0  0  0  0
  -52.6980    0.9690  -22.4200 C   0  0  0  0  0  0  0  0  0  0  0  0
  -53.9010    1.3360  -21.9470 C   0  0  0  0  0  0  0  0  0  0  0  0
  -49.7760   -2.6550  -23.1220 N   0  0  0  0  0  0  0  0  0  0  0  0
  -49.0930   -2.4010  -24.3710 C   0  0  0  0  0  0  0  0  0  0  0  0
  -50.0870   -1.9620  -25.4480 C   0  0  0  0  0  0  0  0  0  0  0  0
  -51.3520   -1.7100  -24.8200 N   0  0  0  0  0  0  0  0  0  0  0  0
  -52.3100   -1.0170  -25.6290 C   0  0  0  0  0  0  0  0  0  0  0  0
  -51.9340   -2.8730  -24.1720 C   0  0  0  0  0  0  0  0  0  0  0  0
  -51.0330   -3.4160  -23.0910 C   0  0  0  0  0  0  0  0  0  0  0  0
  -49.3803    0.2664  -19.6951 H   0  0  0  0  0  0  0  0  0  0  0  0
  -48.2248   -3.9733  -21.5561 H   0  0  0  0  0  0  0  0  0  0  0  0
  -49.3429   -2.7151  -14.4951 H   0  0  0  0  0  0  0  0  0  0  0  0
  -51.7737    1.6979  -16.7727 H   0  0  0  0  0  0  0  0  0  0  0  0
  -53.5656    3.2477  -16.2672 H   0  0  0  0  0  0  0  0  0  0  0  0
  -53.1024    5.4763  -15.5062 H   0  0  0  0  0  0  0  0  0  0  0  0
  -51.5656    5.3640  -13.6351 H   0  0  0  0  0  0  0  0  0  0  0  0
  -48.6671    1.5935  -12.8977 H   0  0  0  0  0  0  0  0  0  0  0  0
  -46.9164   -5.2825  -18.1237 H   0  0  0  0  0  0  0  0  0  0  0  0
  -47.9984   -5.3692  -19.4930 H   0  0  0  0  0  0  0  0  0  0  0  0
  -48.5057   -4.5627  -18.0283 H   0  0  0  0  0  0  0  0  0  0  0  0
  -52.3420    1.3718  -23.3010 H   0  0  0  0  0  0  0  0  0  0  0  0
  -54.2543    0.9315  -21.0658 H   0  0  0  0  0  0  0  0  0  0  0  0
  -54.4716    2.0224  -22.4650 H   0  0  0  0  0  0  0  0  0  0  0  0
  -48.3684   -1.6274  -24.2247 H   0  0  0  0  0  0  0  0  0  0  0  0
  -48.6126   -3.3019  -24.6912 H   0  0  0  0  0  0  0  0  0  0  0  0
  -49.7350   -1.0700  -25.9228 H   0  0  0  0  0  0  0  0  0  0  0  0
  -50.1897   -2.7279  -26.1881 H   0  0  0  0  0  0  0  0  0  0  0  0
  -51.8437   -0.1699  -26.0872 H   0  0  0  0  0  0  0  0  0  0  0  0
  -53.1232   -0.6883  -25.0161 H   0  0  0  0  0  0  0  0  0  0  0  0
  -52.6786   -1.6751  -26.3879 H   0  0  0  0  0  0  0  0  0  0  0  0
  -52.0943   -3.6352  -24.9056 H   0  0  0  0  0  0  0  0  0  0  0  0
  -52.8576   -2.5768  -23.7201 H   0  0  0  0  0  0  0  0  0  0  0  0
  -50.8346   -4.4521  -23.2702 H   0  0  0  0  0  0  0  0  0  0  0  0
  -51.5017   -3.3203  -22.1339 H   0  0  0  0  0  0  0  0  0  0  0  0
  1  2  1  0  0  0  0
  2  3  2  0  0  0  0
  2 43  1  0  0  0  0
  3  7  1  0  0  0  0
  4  3  1  0  0  0  0
  4 28  1  0  0  0  0
  5  4  2  0  0  0  0
  5 44  1  0  0  0  0
  6  1  2  0  0  0  0
  6  5  1  0  0  0  0
  7  8  1  0  0  0  0
  9  7  1  1  0  0  0
  9 10  1  0  0  0  0
  9 16  1  0  0  0  0
 10 11  1  0  0  0  0
 11 13  1  0  0  0  0
 11 45  1  0  0  0  0
 12 10  1  0  0  0  0
 13 14  1  0  0  0  0
 15 13  2  0  0  0  0
 15 18  1  0  0  0  0
 16 15  1  0  0  0  0
 17 16  1  0  0  0  0
 18 26  2  0  0  0  0
 19 18  1  0  0  0  0
 19 21  1  0  0  0  0
 20 19  2  0  0  0  0
 20 46  1  0  0  0  0
 21 25  1  0  0  0  0
 22 20  1  0  0  0  0
 22 23  1  0  0  0  0
 22 47  1  0  0  0  0
 23 24  2  0  0  0  0
 23 48  1  0  0  0  0
 24 21  1  0  0  0  0
 24 49  1  0  0  0  0
 25 27  1  0  0  0  0
 26 25  1  0  0  0  0
 26 50  1  0  0  0  0
 28 29  1  0  0  0  0
 29 51  1  0  0  0  0
 29 52  1  0  0  0  0
 29 53  1  0  0  0  0
 30 31  1  0  0  0  0
 30  1  1  0  0  0  0
 31 32  2  0  0  0  0
 33 30  1  0  0  0  0
 34 35  2  0  0  0  0
 34 31  1  0  0  0  0
 34 54  1  0  0  0  0
 35 55  1  0  0  0  0
 35 56  1  0  0  0  0
 36 42  1  0  0  0  0
 36  6  1  0  0  0  0
 37 36  1  0  0  0  0
 37 57  1  0  0  0  0
 37 58  1  0  0  0  0
 38 39  1  0  0  0  0
 38 37  1  0  0  0  0
 38 59  1  0  0  0  0
 38 60  1  0  0  0  0
 39 41  1  0  0  0  0
 40 39  1  0  0  0  0
 40 61  1  0  0  0  0
 40 62  1  0  0  0  0
 40 63  1  0  0  0  0
 41 42  1  0  0  0  0
 41 64  1  0  0  0  0
 41 65  1  0  0  0  0
 42 66  1  0  0  0  0
 42 67  1  0  0  0  0
M  END
>  <MODEL>
1

>  <REMARK>
 VINA RESULT:      -7.8      0.000      0.000
  7 active torsions:
  status: ('A' for Active; 'I' for Inactive)
    1  A    between atoms: C_2  and  C_3 
       I    between atoms: C_3  and  N_5 
    2  A    between atoms: N_5  and  C_7 
    3  A    between atoms: C_9  and  N_10 
    4  A    between atoms: N_10  and  C_12 
    5  A    between atoms: C_18  and  C_19 
    6  A    between atoms: C_31  and  O_32 
    7  A    between atoms: C_35  and  N_36 

>  <TORSDO>
F 7

$$$$
resistance_project/docking/8faf60323ce63d5a/P00533_T790M/docked/molecule_0002_out.pdbqt
 OpenBabel09142609523D

 67 71  0  0  1  0  0  0  0  0999 V2000
  -51.3960    0.1130  -19.2020 C   0  0  0  0  0  0  0  0  0  0  0  0
  -51.7000    0.9660  -18.1710 C   0  0  0  0  0  0  0  0  0  0  0  0
  -50.9600    1.0970  -17.0150 C   0  0  0  0  0  0  0  0  0  0  0  0
  -49.8290    0.3150  -16.8810 C   0  0  0  0  0  0  0  0  0  0  0  0
  -49.4800   -0.5610  -17.8930 C   0  0  0  0  0  0  0  0  0  0  0  0
  -50.2480   -0.6650  -19.0390 C   0  0  0  0  0  0  0  0  0  0  0  0
  -51.4130    2.0130  -16.0470 N   0  0  0  0  0  0  0  0  0  0  0  0
  -51.8960    2.8480  -16.3770 H   0  0  0  0  0  0  0  0  0  0  0  0
  -51.2460    1.8610  -14.6440 C   0  0  1  0  0  0  0  0  0  0  0  0
  -50.4700    2.6920  -13.9170 N   0  0  0  0  0  0  0  0  0  0  0  0
  -50.3190    2.5390  -12.5670 C   0  0  0  0  0  0  0  0  0  0  0  0
  -49.9840    3.4570  -14.3870 H   0  0  0  0  0  0  0  0  0  0  0  0
  -50.9960    1.4860  -11.9510 C   0  0  0  0  0  0  0  0  0  0  0  0
  -50.8590    1.2140  -10.2210 Cl  0  0  0  0  0  0  0  0  0  0  0  0
  -51.7890    0.6360  -12.6910 C   0  0  0  0  0  0  0  0  0  0  0  0
  -51.8930    0.8440  -14.0120 N   0  0  0  0  0  0  0  0  0  0  0  0
  -52.4790    0.2170  -14.5640 H   0  0  0  0  0  0  0  0  0  0  0  0
  -52.4930   -0.4580  -12.0310 C   0  0  0  0  0  0  0  0  0  0  0  0
  -52.0770   -1.7610  -11.9020 C   0  0  0  0  0  0  0  0  0  0  0  0
  -50.9280   -2.3850  -12.3390 C   0  0  0  0  0  0  0  0  0  0  0  0
  -53.0530   -2.3840  -11.2220 N   0  0  0  0  0  0  0  0  0  0  0  0
  -50.7940   -3.7350  -12.0490 C   0  0  0  0  0  0  0  0  0  0  0  0
  -51.7810   -4.4020  -11.3520 C   0  0  0  0  0  0  0  0  0  0  0  0
  -52.9150   -3.7080  -10.9410 C   0  0  0  0  0  0  0  0  0  0  0  0
  -54.0350   -1.5750  -10.9230 N   0  0  0  0  0  0  0  0  0  0  0  0
  -53.7220   -0.3720  -11.4090 C   0  0  0  0  0  0  0  0  0  0  0  0
  -54.8840   -1.8180  -10.4120 H   0  0  0  0  0  0  0  0  0  0  0  0
  -49.0880    0.4520  -15.7160 O   0  0  0  0  0  0  0  0  0  0  0  0
  -48.6430   -0.7340  -15.0440 C   0  0  0  0  0  0  0  0  0  0  0  0
  -52.1830   -0.0040  -20.3850 N   0  0  0  0  0  0  0  0  0  0  0  0
  -52.3000    1.1580  -21.2320 C   0  0  0  0  0  0  0  0  0  0  0  0
  -51.7890    2.2610  -20.9240 O   0  0  0  0  0  0  0  0  0  0  0  0
  -52.6490   -0.8790  -20.6240 H   0  0  0  0  0  0  0  0  0  0  0  0
  -53.0570    0.9470  -22.4740 C   0  0  0  0  0  0  0  0  0  0  0  0
  -52.4020    0.6600  -23.6110 C   0  0  0  0  0  0  0  0  0  0  0  0
  -49.8220   -1.6000  -20.0240 N   0  0  0  0  0  0  0  0  0  0  0  0
  -49.0380   -1.2380  -21.1840 C   0  0  0  0  0  0  0  0  0  0  0  0
  -49.5910   -1.9150  -22.4400 C   0  0  0  0  0  0  0  0  0  0  0  0
  -50.8550   -2.5090  -22.1130 N   0  0  0  0  0  0  0  0  0  0  0  0
  -51.6410   -2.9310  -23.2350 C   0  0  0  0  0  0  0  0  0  0  0  0
  -50.7800   -3.5370  -21.0900 C   0  0  0  0  0  0  0  0  0  0  0  0
  -50.2300   -2.9940  -19.7950 C   0  0  0  0  0  0  0  0  0  0  0  0
  -52.5439    1.5521  -18.2679 H   0  0  0  0  0  0  0  0  0  0  0  0
  -48.6352   -1.1450  -17.7918 H   0  0  0  0  0  0  0  0  0  0  0  0
  -50.6501    3.4452  -12.1043 H   0  0  0  0  0  0  0  0  0  0  0  0
  -50.1998   -1.8706  -12.8588 H   0  0  0  0  0  0  0  0  0  0  0  0
  -49.8935   -3.8388  -11.4805 H   0  0  0  0  0  0  0  0  0  0  0  0
  -51.6790   -5.4063  -11.1376 H   0  0  0  0  0  0  0  0  0  0  0  0
  -53.6565   -4.2011  -10.4194 H   0  0  0  0  0  0  0  0  0  0  0  0
  -54.3011    0.4788  -11.3326 H   0  0  0  0  0  0  0  0  0  0  0  0
  -48.0893   -0.4621  -14.1697 H   0  0  0  0  0  0  0  0  0  0  0  0
  -48.0173   -1.3022  -15.7001 H   0  0  0  0  0  0  0  0  0  0  0  0
  -49.4904   -1.3227  -14.7607 H   0  0  0  0  0  0  0  0  0  0  0  0
  -54.0865    1.0190  -22.4725 H   0  0  0  0  0  0  0  0  0  0  0  0
  -51.3725    0.5887  -23.6095 H   0  0  0  0  0  0  0  0  0  0  0  0
  -52.9283    0.5108  -24.4861 H   0  0  0  0  0  0  0  0  0  0  0  0
  -49.0708   -0.1763  -21.3133 H   0  0  0  0  0  0  0  0  0  0  0  0
  -48.0292   -1.5614  -21.0334 H   0  0  0  0  0  0  0  0  0  0  0  0
  -49.7224   -1.1884  -23.2144 H   0  0  0  0  0  0  0  0  0  0  0  0
  -48.9098   -2.6648  -22.7845 H   0  0  0  0  0  0  0  0  0  0  0  0
  -51.6715   -2.1481  -23.9638 H   0  0  0  0  0  0  0  0  0  0  0  0
  -52.6356   -3.1545  -22.9099 H   0  0  0  0  0  0  0  0  0  0  0  0
  -51.2026   -3.8053  -23.6689 H   0  0  0  0  0  0  0  0  0  0  0  0
  -50.1424   -4.3240  -21.4349 H   0  0  0  0  0  0  0  0  0  0  0  0
  -51.7701   -3.8991  -20.9069 H   0  0  0  0  0  0  0  0  0  0  0  0
  -49.3849   -3.5740  -19.4878 H   0  0  0  0  0  0  0  0  0  0  0  0
  -50.9726   -3.0426  -19.0262 H   0  0  0  0  0  0  0  0  0  0  0  0
  1  6  2  0  0  0  0
  1  2  1  0  0  0  0
  2  3  2  0  0  0  0
  2 43  1  0  0  0  0
  3  4  1  0  0  0  0
  3  7  1  0  0  0  0
  4 28  1  0  0  0  0
  5  4  2  0  0  0  0
  5 44  1  0  0  0  0
  6  5  1  0  0  0  0
  8  7  1  0  0  0  0
  9  7  1  1  0  0  0
  9 16  1  0  0  0  0
  9 10  1  0  0  0  0
 10 11  1  0  0  0  0
 11 13  1  0  0  0  0
 11 45  1  0  0  0  0
 12 10  1  0  0  0  0
 13 14  1  0  0  0  0
 15 18  1  0  0  0  0
 15 13  2  0  0  0  0
 16 15  1  0  0  0  0
 17 16  1  0  0  0  0
 18 19  1  0  0  0  0
 18 26  2  0  0  0  0
 19 21  1  0  0  0  0
 20 22  1  0  0  0  0
 20 19  2  0  0  0  0
 20 46  1  0  0  0  0
 21 24  1  0  0  0  0
 21 25  1  0  0  0  0
 22 23  1  0  0  0  0
 22 47  1  0  0  0  0
 23 24  2  0  0  0  0
 23 48  1  0  0  0  0
 24 49  1  0  0  0  0
 25 27  1  0  0  0  0
 26 25  1  0  0  0  0
 26 50  1  0  0  0  0
 28 29  1  0  0  0  0
 29 51  1  0  0  0  0
 29 52  1  0  0  0  0
 29 53  1  0  0  0  0
 30  1  1  0  0  0  0
 31 32  2  0  0  0  0
 31 30  1  0  0  0  0
 33 30  1  0  0  0  0
 34 31  1  0  0  0  0
 34 54  1  0  0  0  0
 35 34  2  0  0  0  0
 35 55  1  0  0  0  0
 35 56  1  0  0  0  0
 36 42  1  0  0  0  0
 36  6  1  0  0  0  0
 37 36  1  0  0  0  0
 37 57  1  0  0  0  0
 37 58  1  0  0  0  0
 38 39  1  0  0  0  0
 38 37  1  0  0  0  0
 38 59  1  0  0  0  0
 38 60  1  0  0  0  0
 39 41  1  0  0  0  0
 40 39  1  0  0  0  0
 40 61  1  0  0  0  0
 40 62  1  0  0  0  0
 40 63  1  0  0  0  0
 41 42  1  0  0  0  0
 41 64  1  0  0  0  0
 41 65  1  0  0  0  0
 42 66  1  0  0  0  0
 42 67  1  0  0  0  0
M  END
>  <REMARK>
 VINA RESULT:      -7.8      3.071      4.847
  7 active torsions:
  status: ('A' for Active; 'I' for Inactive)
    1  A    between atoms: C_2  and  C_3 
       I    between atoms: C_3  and  N_5 
    2  A    between atoms: N_5  and  C_7 
    3  A    between atoms: C_9  and  N_10 
    4  A    between atoms: N_10  and  C_12 
    5  A    between atoms: C_18  and  C_19 
    6  A    between atoms: C_31  and  O_32 
    7  A    between atoms: C_35  and  N_36 

>  <TORSDO>
F 7

$$$$
resistance_project/docking/8faf60323ce63d5a/P00533_T790M/docked/molecule_0002_out.pdbqt
 OpenBabel09142609523D

 67 71  0  0  1  0  0  0  0  0999 V2000
  -50.3580   -0.2770  -15.5480 C   0  0  0  0  0  0  0  0  0  0  0  0
  -50.3320    0.4630  -16.7040 C   0  0  0  0  0  0  0  0  0  0  0  0
  -50.1910   -0.0640  -17.9700 C   0  0  0  0  0  0  0  0  0  0  0  0
  -50.0670   -1.4350  -18.0880 C   0  0  0  0  0  0  0  0  0  0  0  0
  -50.0870   -2.2230  -16.9520 C   0  0  0  0  0  0  0  0  0  0  0  0
  -50.2290   -1.6590  -15.6980 C   0  0  0  0  0  0  0  0  0  0  0  0
  -50.1760    0.8330  -19.0550 N   0  0  0  0  0  0  0  0  0  0  0  0
  -49.3490    1.4170  -19.1730 H   0  0  0  0  0  0  0  0  0  0  0  0
  -51.2290    0.9860  -19.9970 C   0  0  1  0  0  0  0  0  0  0  0  0
  -52.4220    1.5220  -19.6630 N   0  0  0  0  0  0  0  0  0  0  0  0
  -53.4270    1.6670  -20.5770 C   0  0  0  0  0  0  0  0  0  0  0  0
  -52.5770    1.8280  -18.7020 H   0  0  0  0  0  0  0  0  0  0  0  0
  -53.1860    1.2390  -21.8840 C   0  0  0  0  0  0  0  0  0  0  0  0
  -54.4210    1.3880  -23.1250 Cl  0  0  0  0  0  0  0  0  0  0  0  0
  -51.9700    0.6910  -22.2270 C   0  0  0  0  0  0  0  0  0  0  0  0
  -51.0270    0.5790  -21.2800 N   0  0  0  0  0  0  0  0  0  0  0  0
  -50.1240    0.1730  -21.5300 H   0  0  0  0  0  0  0  0  0  0  0  0
  -51.7320    0.2540  -23.5990 C   0  0  0  0  0  0  0  0  0  0  0  0
  -51.6740   -1.0370  -24.0640 C   0  0  0  0  0  0  0  0  0  0  0  0
  -51.8140   -2.2390  -23.4010 C   0  0  0  0  0  0  0  0  0  0  0  0
  -51.4390   -0.9350  -25.3820 N   0  0  0  0  0  0  0  0  0  0  0  0
  -51.7020   -3.3950  -24.1610 C   0  0  0  0  0  0  0  0  0  0  0  0
  -51.4590   -3.3200  -25.5170 C   0  0  0  0  0  0  0  0  0  0  0  0
  -51.3280   -2.0730  -26.1200 C   0  0  0  0  0  0  0  0  0  0  0  0
  -51.3450    0.3110  -25.7670 N   0  0  0  0  0  0  0  0  0  0  0  0
  -51.5230    1.0760  -24.6870 C   0  0  0  0  0  0  0  0  0  0  0  0
  -51.1700    0.6390  -26.7170 H   0  0  0  0  0  0  0  0  0  0  0  0
  -49.9270   -1.9590  -19.3650 O   0  0  0  0  0  0  0  0  0  0  0  0
  -50.9340   -2.8560  -19.8520 C   0  0  0  0  0  0  0  0  0  0  0  0
  -50.5010    0.2970  -14.2500 N   0  0  0  0  0  0  0  0  0  0  0  0
  -49.3280    0.8650  -13.6330 C   0  0  0  0  0  0  0  0  0  0  0  0
  -48.1970    0.8070  -14.1720 O   0  0  0  0  0  0  0  0  0  0  0  0
  -51.4030    0.3060  -13.7750 H   0  0  0  0  0  0  0  0  0  0  0  0
  -49.5610    1.5110  -12.3330 C   0  0  0  0  0  0  0  0  0  0  0  0
  -50.8190    1.7380  -11.9200 C   0  0  0  0  0  0  0  0  0  0  0  0
  -50.2280   -2.5440  -14.5820 N   0  0  0  0  0  0  0  0  0  0  0  0
  -51.4230   -3.1520  -14.0420 C   0  0  0  0  0  0  0  0  0  0  0  0
  -51.4230   -3.0730  -12.5140 C   0  0  0  0  0  0  0  0  0  0  0  0
  -50.3510   -2.2120  -12.1060 N   0  0  0  0  0  0  0  0  0  0  0  0
  -50.3860   -1.7990  -10.7340 C   0  0  0  0  0  0  0  0  0  0  0  0
  -49.0320   -2.6810  -12.4950 C   0  0  0  0  0  0  0  0  0  0  0  0
  -48.9090   -2.8170  -13.9910 C   0  0  0  0  0  0  0  0  0  0  0  0
  -50.4247    1.4873  -16.6192 H   0  0  0  0  0  0  0  0  0  0  0  0
  -49.9946   -3.2469  -17.0416 H   0  0  0  0  0  0  0  0  0  0  0  0
  -54.2710    1.1195  -20.2126 H   0  0  0  0  0  0  0  0  0  0  0  0
  -51.9939   -2.2768  -22.3855 H   0  0  0  0  0  0  0  0  0  0  0  0
  -50.9014   -3.9644  -23.7370 H   0  0  0  0  0  0  0  0  0  0  0  0
  -51.3751   -4.1814  -26.0792 H   0  0  0  0  0  0  0  0  0  0  0  0
  -51.1454   -2.0106  -27.1338 H   0  0  0  0  0  0  0  0  0  0  0  0
  -51.5069    2.1077  -24.6693 H   0  0  0  0  0  0  0  0  0  0  0  0
  -50.6830   -3.1694  -20.8438 H   0  0  0  0  0  0  0  0  0  0  0  0
  -51.8804   -2.3569  -19.8644 H   0  0  0  0  0  0  0  0  0  0  0  0
  -50.9901   -3.7111  -19.2112 H   0  0  0  0  0  0  0  0  0  0  0  0
  -48.7625    1.7885  -11.7410 H   0  0  0  0  0  0  0  0  0  0  0  0
  -51.6154    1.4593  -12.5142 H   0  0  0  0  0  0  0  0  0  0  0  0
  -50.9890    2.1911  -11.0085 H   0  0  0  0  0  0  0  0  0  0  0  0
  -51.4614   -4.1786  -14.3412 H   0  0  0  0  0  0  0  0  0  0  0  0
  -52.2769   -2.6260  -14.4150 H   0  0  0  0  0  0  0  0  0  0  0  0
  -51.2792   -4.0498  -12.1015 H   0  0  0  0  0  0  0  0  0  0  0  0
  -52.3581   -2.6869  -12.1655 H   0  0  0  0  0  0  0  0  0  0  0  0
  -51.3712   -1.4618  -10.4881 H   0  0  0  0  0  0  0  0  0  0  0  0
  -49.6883   -1.0018  -10.5836 H   0  0  0  0  0  0  0  0  0  0  0  0
  -50.1246   -2.6250  -10.1061 H   0  0  0  0  0  0  0  0  0  0  0  0
  -48.2992   -1.9824  -12.1487 H   0  0  0  0  0  0  0  0  0  0  0  0
  -48.8780   -3.6455  -12.0580 H   0  0  0  0  0  0  0  0  0  0  0  0
  -48.1924   -2.1142  -14.3618 H   0  0  0  0  0  0  0  0  0  0  0  0
  -48.5828   -3.8028  -14.2491 H   0  0  0  0  0  0  0  0  0  0  0  0
  1 30  1  0  0  0  0
  2  1  2  0  0  0  0
  2 43  1  0  0  0  0
  3  2  1  0  0  0  0
  4  3  2  0  0  0  0
  4  5  1  0  0  0  0
  5  6  2  0  0  0  0
  5 44  1  0  0  0  0
  6  1  1  0  0  0  0
  6 36  1  0  0  0  0
  7  3  1  0  0  0  0
  8  7  1  0  0  0  0
  9 10  1  0  0  0  0
  9  7  1  6  0  0  0
 10 12  1  0  0  0  0
 11 10  1  0  0  0  0
 11 45  1  0  0  0  0
 13 11  1  0  0  0  0
 14 13  1  0  0  0  0
 15 13  2  0  0  0  0
 15 16  1  0  0  0  0
 16  9  1  0  0  0  0
 17 16  1  0  0  0  0
 18 15  1  0  0  0  0
 19 18  1  0  0  0  0
 19 20  2  0  0  0  0
 20 46  1  0  0  0  0
 21 19  1  0  0  0  0
 22 20  1  0  0  0  0
 22 47  1  0  0  0  0
 23 22  1  0  0  0  0
 23 48  1  0  0  0  0
 24 23  2  0  0  0  0
 24 21  1  0  0  0  0
 24 49  1  0  0  0  0
 25 21  1  0  0  0  0
 25 26  1  0  0  0  0
 26 18  2  0  0  0  0
 26 50  1  0  0  0  0
 27 25  1  0  0  0  0
 28  4  1  0  0  0  0
 29 28  1  0  0  0  0
 29 51  1  0  0  0  0
 29 52  1  0  0  0  0
 29 53  1  0  0  0  0
 30 33  1  0  0  0  0
 30 31  1  0  0  0  0
 31 34  1  0  0  0  0
 32 31  2  0  0  0  0
 34 35  2  0  0  0  0
 34 54  1  0  0  0  0
 35 55  1  0  0  0  0
 35 56  1  0  0  0  0
 36 37  1  0  0  0  0
 36 42  1  0  0  0  0
 37 38  1  0  0  0  0
 37 57  1  0  0  0  0
 37 58  1  0  0  0  0
 38 39  1  0  0  0  0
 38 59  1  0  0  0  0
 38 60  1  0  0  0  0
 39 40  1  0  0  0  0
 40 61  1  0  0  0  0
 40 62  1  0  0  0  0
 40 63  1  0  0  0  0
 41 39  1  0  0  0  0
 41 64  1  0  0  0  0
 41 65  1  0  0  0  0
 42 41  1  0  0  0  0
 42 66  1  0  0  0  0
 42 67  1  0  0  0  0
M  END
>  <REMARK>
 VINA RESULT:      -7.8      3.018      9.150
  7 active torsions:
  status: ('A' for Active; 'I' for Inactive)
    1  A    between atoms: C_2  and  C_3 
       I    between atoms: C_3  and  N_5 
    2  A    between atoms: N_5  and  C_7 
    3  A    between atoms: C_9  and  N_10 
    4  A    between atoms: N_10  and  C_12 
    5  A    between atoms: C_18  and  C_19 
    6  A    between atoms: C_31  and  O_32 
    7  A    between atoms: C_35  and  N_36 

>  <TORSDO>
F 7

$$$$
resistance_project/docking/8faf60323ce63d5a/P00533_T790M/docked/molecule_0002_out.pdbqt
 OpenBabel09142609523D

 67 71  0  0  1  0  0  0  0  0999 V2000
  -50.6420    1.4040  -15.6300 C   0  0  0  0  0  0  0  0  0  0  0  0
  -50.4780    1.3660  -16.9920 C   0  0  0  0  0  0  0  0  0  0  0  0
  -50.2200    0.2250  -17.7220 C   0  0  0  0  0  0  0  0  0  0  0  0
  -50.1200   -0.9700  -17.0350 C   0  0  0  0  0  0  0  0  0  0  0  0
  -50.2770   -0.9840  -15.6620 C   0  0  0  0  0  0  0  0  0  0  0  0
  -50.5340    0.1820  -14.9630 C   0  0  0  0  0  0  0  0  0  0  0  0
  -50.0700    0.3580  -19.1150 N   0  0  0  0  0  0  0  0  0  0  0  0
  -49.1310    0.2620  -19.5000 H   0  0  0  0  0  0  0  0  0  0  0  0
  -51.1300    0.6170  -20.0250 C   0  0  1  0  0  0  0  0  0  0  0  0
  -52.2820    1.2050  -19.6400 N   0  0  0  0  0  0  0  0  0  0  0  0
  -53.2950    1.4530  -20.5230 C   0  0  0  0  0  0  0  0  0  0  0  0
  -52.4000    1.4730  -18.6620 H   0  0  0  0  0  0  0  0  0  0  0  0
  -53.1060    1.0750  -21.8530 C   0  0  0  0  0  0  0  0  0  0  0  0
  -54.3540    1.3550  -23.0580 Cl  0  0  0  0  0  0  0  0  0  0  0  0
  -51.9310    0.4750  -22.2500 C   0  0  0  0  0  0  0  0  0  0  0  0
  -50.9770    0.2610  -21.3300 N   0  0  0  0  0  0  0  0  0  0  0  0
  -50.1060   -0.1830  -21.6190 H   0  0  0  0  0  0  0  0  0  0  0  0
  -51.7460    0.0900  -23.6450 C   0  0  0  0  0  0  0  0  0  0  0  0
  -51.6680   -1.1820  -24.1560 C   0  0  0  0  0  0  0  0  0  0  0  0
  -51.7340   -2.4090  -23.5290 C   0  0  0  0  0  0  0  0  0  0  0  0
  -51.5010   -1.0290  -25.4800 N   0  0  0  0  0  0  0  0  0  0  0  0
  -51.6190   -3.5350  -24.3320 C   0  0  0  0  0  0  0  0  0  0  0  0
  -51.4470   -3.4070  -25.6950 C   0  0  0  0  0  0  0  0  0  0  0  0
  -51.3890   -2.1370  -26.2610 C   0  0  0  0  0  0  0  0  0  0  0  0
  -51.4690    0.2320  -25.8260 N   0  0  0  0  0  0  0  0  0  0  0  0
  -51.6200    0.9540  -24.7130 C   0  0  0  0  0  0  0  0  0  0  0  0
  -51.3530    0.5960  -26.7720 H   0  0  0  0  0  0  0  0  0  0  0  0
  -49.8610   -2.1150  -17.7750 O   0  0  0  0  0  0  0  0  0  0  0  0
  -49.6220   -3.3430  -17.0750 C   0  0  0  0  0  0  0  0  0  0  0  0
  -50.9040    2.6010  -14.9020 N   0  0  0  0  0  0  0  0  0  0  0  0
  -51.9410    3.4740  -15.3950 C   0  0  0  0  0  0  0  0  0  0  0  0
  -52.5570    3.2410  -16.4620 O   0  0  0  0  0  0  0  0  0  0  0  0
  -50.3760    2.8320  -14.0600 H   0  0  0  0  0  0  0  0  0  0  0  0
  -52.2150    4.6480  -14.5540 C   0  0  0  0  0  0  0  0  0  0  0  0
  -52.5500    5.8150  -15.1290 C   0  0  0  0  0  0  0  0  0  0  0  0
  -50.6710    0.0760  -13.5500 N   0  0  0  0  0  0  0  0  0  0  0  0
  -49.5600    0.1770  -12.6300 C   0  0  0  0  0  0  0  0  0  0  0  0
  -49.6450   -0.9170  -11.5630 C   0  0  0  0  0  0  0  0  0  0  0  0
  -50.6700   -1.8440  -11.9470 N   0  0  0  0  0  0  0  0  0  0  0  0
  -50.6850   -3.0770  -11.2160 C   0  0  0  0  0  0  0  0  0  0  0  0
  -51.9950   -1.2570  -12.0420 C   0  0  0  0  0  0  0  0  0  0  0  0
  -52.0390   -0.1450  -13.0600 C   0  0  0  0  0  0  0  0  0  0  0  0
  -50.5533    2.2567  -17.5077 H   0  0  0  0  0  0  0  0  0  0  0  0
  -50.2014   -1.8772  -15.1507 H   0  0  0  0  0  0  0  0  0  0  0  0
  -54.1629    0.9393  -20.1655 H   0  0  0  0  0  0  0  0  0  0  0  0
  -51.8632   -2.4862  -22.5080 H   0  0  0  0  0  0  0  0  0  0  0  0
  -50.7784   -4.0874  -23.9672 H   0  0  0  0  0  0  0  0  0  0  0  0
  -51.3621   -4.2461  -26.2898 H   0  0  0  0  0  0  0  0  0  0  0  0
  -51.2602   -2.0352  -27.2799 H   0  0  0  0  0  0  0  0  0  0  0  0
  -51.6392    1.9845  -24.6606 H   0  0  0  0  0  0  0  0  0  0  0  0
  -49.4397   -4.1262  -17.7808 H   0  0  0  0  0  0  0  0  0  0  0  0
  -50.4788   -3.5887  -16.4830 H   0  0  0  0  0  0  0  0  0  0  0  0
  -48.7692   -3.2307  -16.4387 H   0  0  0  0  0  0  0  0  0  0  0  0
  -52.1503    4.5761  -13.5265 H   0  0  0  0  0  0  0  0  0  0  0  0
  -52.6140    5.8843  -16.1567 H   0  0  0  0  0  0  0  0  0  0  0  0
  -52.7434    6.6422  -14.5430 H   0  0  0  0  0  0  0  0  0  0  0  0
  -49.5830    1.1351  -12.1543 H   0  0  0  0  0  0  0  0  0  0  0  0
  -48.6474    0.0574  -13.1757 H   0  0  0  0  0  0  0  0  0  0  0  0
  -49.8880   -0.4809  -10.6166 H   0  0  0  0  0  0  0  0  0  0  0  0
  -48.7054   -1.4218  -11.4778 H   0  0  0  0  0  0  0  0  0  0  0  0
  -51.4809   -3.6952  -11.5756 H   0  0  0  0  0  0  0  0  0  0  0  0
  -50.8335   -2.8733  -10.1761 H   0  0  0  0  0  0  0  0  0  0  0  0
  -49.7518   -3.5829  -11.3507 H   0  0  0  0  0  0  0  0  0  0  0  0
  -52.6916   -2.0171  -12.3280 H   0  0  0  0  0  0  0  0  0  0  0  0
  -52.2478   -0.8461  -11.0870 H   0  0  0  0  0  0  0  0  0  0  0  0
  -52.6759   -0.4226  -13.8738 H   0  0  0  0  0  0  0  0  0  0  0  0
  -52.4245    0.7495  -12.6172 H   0  0  0  0  0  0  0  0  0  0  0  0
  1  6  1  0  0  0  0
  1 30  1  0  0  0  0
  2  1  2  0  0  0  0
  2 43  1  0  0  0  0
  3  4  2  0  0  0  0
  3  2  1  0  0  0  0
  4  5  1  0  0  0  0
  5  6  2  0  0  0  0
  5 44  1  0  0  0  0
  6 36  1  0  0  0  0
  7  3  1  0  0  0  0
  8  7  1  0  0  0  0
  9 10  1  0  0  0  0
  9  7  1  6  0  0  0
 10 12  1  0  0  0  0
 11 10  1  0  0  0  0
 11 45  1  0  0  0  0
 13 11  1  0  0  0  0
 14 13  1  0  0  0  0
 15 13  2  0  0  0  0
 15 16  1  0  0  0  0
 16  9  1  0  0  0  0
 17 16  1  0  0  0  0
 18 15  1  0  0  0  0
 19 18  1  0  0  0  0
 19 20  2  0  0  0  0
 20 46  1  0  0  0  0
 21 19  1  0  0  0  0
 22 20  1  0  0  0  0
 22 47  1  0  0  0  0
 23 22  1  0  0  0  0
 23 48  1  0  0  0  0
 24 23  2  0  0  0  0
 24 21  1  0  0  0  0
 24 49  1  0  0  0  0
 25 21  1  0  0  0  0
 25 26  1  0  0  0  0
 26 18  2  0  0  0  0
 26 50  1  0  0  0  0
 27 25  1  0  0  0  0
 28 29  1  0  0  0  0
 28  4  1  0  0  0  0
 29 51  1  0  0  0  0
 29 52  1  0  0  0  0
 29 53  1  0  0  0  0
 30 33  1  0  0  0  0
 31 30  1  0  0  0  0
 31 34  1  0  0  0  0
 32 31  2  0  0  0  0
 34 54  1  0  0  0  0
 35 34  2  0  0  0  0
 35 55  1  0  0  0  0
 35 56  1  0  0  0  0
 36 42  1  0  0  0  0
 36 37  1  0  0  0  0
 37 38  1  0  0  0  0
 37 57  1  0  0  0  0
 37 58  1  0  0  0  0
 38 59  1  0  0  0  0
 38 60  1  0  0  0  0
 39 38  1  0  0  0  0
 39 40  1  0  0  0  0
 40 61  1  0  0  0  0
 40 62  1  0  0  0  0
 40 63  1  0  0  0  0
 41 39  1  0  0  0  0
 41 64  1  0  0  0  0
 41 65  1  0  0  0  0
 42 41  1  0  0  0  0
 42 66  1  0  0  0  0
 42 67  1  0  0  0  0
M  END
>  <REMARK>
 VINA RESULT:      -7.8      2.903      9.194
  7 active torsions:
  status: ('A' for Active; 'I' for Inactive)
    1  A    between atoms: C_2  and  C_3 
       I    between atoms: C_3  and  N_5 
    2  A    between atoms: N_5  and  C_7 
    3  A    between atoms: C_9  and  N_10 
    4  A    between atoms: N_10  and  C_12 
    5  A    between atoms: C_18  and  C_19 
    6  A    between atoms: C_31  and  O_32 
    7  A    between atoms: C_35  and  N_36 

>  <TORSDO>
F 7

$$$$
resistance_project/docking/8faf60323ce63d5a/P00533_T790M/docked/molecule_0002_out.pdbqt
 OpenBabel09142609523D

 67 71  0  0  1  0  0  0  0  0999 V2000
  -50.4930   -1.5470  -18.1390 C   0  0  0  0  0  0  0  0  0  0  0  0
  -50.3590   -2.4690  -19.1470 C   0  0  0  0  0  0  0  0  0  0  0  0
  -49.5100   -3.5550  -19.1110 C   0  0  0  0  0  0  0  0  0  0  0  0
  -48.7370   -3.7320  -17.9790 C   0  0  0  0  0  0  0  0  0  0  0  0
  -48.8360   -2.8290  -16.9360 C   0  0  0  0  0  0  0  0  0  0  0  0
  -49.6990   -1.7510  -17.0080 C   0  0  0  0  0  0  0  0  0  0  0  0
  -49.4850   -4.4040  -20.2330 N   0  0  0  0  0  0  0  0  0  0  0  0
  -49.7220   -5.3840  -20.0890 H   0  0  0  0  0  0  0  0  0  0  0  0
  -49.1520   -3.9950  -21.5530 C   0  0  1  0  0  0  0  0  0  0  0  0
  -47.9010   -4.1080  -22.0480 N   0  0  0  0  0  0  0  0  0  0  0  0
  -47.5910   -3.7140  -23.3190 C   0  0  0  0  0  0  0  0  0  0  0  0
  -47.1660   -4.4990  -21.4570 H   0  0  0  0  0  0  0  0  0  0  0  0
  -48.6160   -3.1830  -24.1040 C   0  0  0  0  0  0  0  0  0  0  0  0
  -48.3090   -2.6510  -25.7500 Cl  0  0  0  0  0  0  0  0  0  0  0  0
  -49.8940   -3.0660  -23.6010 C   0  0  0  0  0  0  0  0  0  0  0  0
  -50.1280   -3.4720  -22.3450 N   0  0  0  0  0  0  0  0  0  0  0  0
  -51.0720   -3.3870  -21.9680 H   0  0  0  0  0  0  0  0  0  0  0  0
  -50.9540   -2.5130  -24.4360 C   0  0  0  0  0  0  0  0  0  0  0  0
  -51.5190   -1.2640  -24.3490 C   0  0  0  0  0  0  0  0  0  0  0  0
  -51.2620   -0.2190  -23.4860 C   0  0  0  0  0  0  0  0  0  0  0  0
  -52.4420   -1.2170  -25.3230 N   0  0  0  0  0  0  0  0  0  0  0  0
  -52.0120    0.9360  -23.6520 C   0  0  0  0  0  0  0  0  0  0  0  0
  -52.9690    1.0120  -24.6440 C   0  0  0  0  0  0  0  0  0  0  0  0
  -53.1750   -0.0810  -25.4800 C   0  0  0  0  0  0  0  0  0  0  0  0
  -52.4940   -2.3330  -26.0010 N   0  0  0  0  0  0  0  0  0  0  0  0
  -51.5840   -3.1590  -25.4800 C   0  0  0  0  0  0  0  0  0  0  0  0
  -53.1140   -2.5360  -26.7860 H   0  0  0  0  0  0  0  0  0  0  0  0
  -47.8860   -4.8270  -17.9490 O   0  0  0  0  0  0  0  0  0  0  0  0
  -46.5410   -4.6370  -17.4880 C   0  0  0  0  0  0  0  0  0  0  0  0
  -51.3770   -0.4300  -18.2060 N   0  0  0  0  0  0  0  0  0  0  0  0
  -51.0290    0.6500  -19.0970 C   0  0  0  0  0  0  0  0  0  0  0  0
  -49.9580    0.6570  -19.7490 O   0  0  0  0  0  0  0  0  0  0  0  0
  -52.2270   -0.3960  -17.6430 H   0  0  0  0  0  0  0  0  0  0  0  0
  -52.0220    1.7300  -19.1790 C   0  0  0  0  0  0  0  0  0  0  0  0
  -52.9260    1.7290  -20.1730 C   0  0  0  0  0  0  0  0  0  0  0  0
  -49.7280   -0.8660  -15.8940 N   0  0  0  0  0  0  0  0  0  0  0  0
  -50.6410   -1.0110  -14.7810 C   0  0  0  0  0  0  0  0  0  0  0  0
  -51.2490    0.3420  -14.4050 C   0  0  0  0  0  0  0  0  0  0  0  0
  -50.9040    1.2910  -15.4240 N   0  0  0  0  0  0  0  0  0  0  0  0
  -51.6280    2.5270  -15.3790 C   0  0  0  0  0  0  0  0  0  0  0  0
  -49.4750    1.5090  -15.5730 C   0  0  0  0  0  0  0  0  0  0  0  0
  -48.7540    0.2340  -15.9310 C   0  0  0  0  0  0  0  0  0  0  0  0
  -50.9355   -2.3401  -19.9932 H   0  0  0  0  0  0  0  0  0  0  0  0
  -48.2574   -2.9617  -16.0918 H   0  0  0  0  0  0  0  0  0  0  0  0
  -46.8271   -2.9685  -23.2447 H   0  0  0  0  0  0  0  0  0  0  0  0
  -50.5433   -0.2933  -22.7492 H   0  0  0  0  0  0  0  0  0  0  0  0
  -52.5168    1.1100  -22.7247 H   0  0  0  0  0  0  0  0  0  0  0  0
  -53.5267    1.8719  -24.7645 H   0  0  0  0  0  0  0  0  0  0  0  0
  -53.8883   -0.0300  -26.2240 H   0  0  0  0  0  0  0  0  0  0  0  0
  -51.3852   -4.1187  -25.8034 H   0  0  0  0  0  0  0  0  0  0  0  0
  -46.0164   -5.5688  -17.5248 H   0  0  0  0  0  0  0  0  0  0  0  0
  -46.5568   -4.2761  -16.4808 H   0  0  0  0  0  0  0  0  0  0  0  0
  -46.0466   -3.9243  -18.1145 H   0  0  0  0  0  0  0  0  0  0  0  0
  -52.0250    2.4858  -18.4763 H   0  0  0  0  0  0  0  0  0  0  0  0
  -52.9208    0.9720  -20.8744 H   0  0  0  0  0  0  0  0  0  0  0  0
  -53.6255    2.4852  -20.2351 H   0  0  0  0  0  0  0  0  0  0  0  0
  -50.1101   -1.4043  -13.9393 H   0  0  0  0  0  0  0  0  0  0  0  0
  -51.4289   -1.6769  -15.0650 H   0  0  0  0  0  0  0  0  0  0  0  0
  -52.3133    0.2541  -14.3381 H   0  0  0  0  0  0  0  0  0  0  0  0
  -50.8707    0.6651  -13.4577 H   0  0  0  0  0  0  0  0  0  0  0  0
  -51.2995    3.1620  -16.1751 H   0  0  0  0  0  0  0  0  0  0  0  0
  -51.4507    3.0103  -14.4410 H   0  0  0  0  0  0  0  0  0  0  0  0
  -52.6744    2.3316  -15.4874 H   0  0  0  0  0  0  0  0  0  0  0  0
  -49.3124    2.2292  -16.3474 H   0  0  0  0  0  0  0  0  0  0  0  0
  -49.0905    1.8601  -14.6382 H   0  0  0  0  0  0  0  0  0  0  0  0
  -48.3369    0.3164  -16.9129 H   0  0  0  0  0  0  0  0  0  0  0  0
  -47.9597    0.0498  -15.2382 H   0  0  0  0  0  0  0  0  0  0  0  0
  1  6  2  0  0  0  0
  2  3  2  0  0  0  0
  2  1  1  0  0  0  0
  2 43  1  0  0  0  0
  3  4  1  0  0  0  0
  4 28  1  0  0  0  0
  4  5  2  0  0  0  0
  5 44  1  0  0  0  0
  6  5  1  0  0  0  0
  6 36  1  0  0  0  0
  7  8  1  0  0  0  0
  7  3  1  0  0  0  0
  9  7  1  6  0  0  0
 10  9  1  0  0  0  0
 10 12  1  0  0  0  0
 11 10  1  0  0  0  0
 11 45  1  0  0  0  0
 13 15  2  0  0  0  0
 13 11  1  0  0  0  0
 14 13  1  0  0  0  0
 15 16  1  0  0  0  0
 16 17  1  0  0  0  0
 16  9  1  0  0  0  0
 18 19  1  0  0  0  0
 18 15  1  0  0  0  0
 19 20  2  0  0  0  0
 20 46  1  0  0  0  0
 21 19  1  0  0  0  0
 22 20  1  0  0  0  0
 22 47  1  0  0  0  0
 23 22  1  0  0  0  0
 23 48  1  0  0  0  0
 24 21  1  0  0  0  0
 24 23  2  0  0  0  0
 24 49  1  0  0  0  0
 25 26  1  0  0  0  0
 25 21  1  0  0  0  0
 26 18  2  0  0  0  0
 26 50  1  0  0  0  0
 27 25  1  0  0  0  0
 28 29  1  0  0  0  0
 29 51  1  0  0  0  0
 29 52  1  0  0  0  0
 29 53  1  0  0  0  0
 30  1  1  0  0  0  0
 30 33  1  0  0  0  0
 31 30  1  0  0  0  0
 32 31  2  0  0  0  0
 34 31  1  0  0  0  0
 34 54  1  0  0  0  0
 35 34  2  0  0  0  0
 35 55  1  0  0  0  0
 35 56  1  0  0  0  0
 36 37  1  0  0  0  0
 37 38  1  0  0  0  0
 37 57  1  0  0  0  0
 37 58  1  0  0  0  0
 38 59  1  0  0  0  0
 38 60  1  0  0  0  0
 39 40  1  0  0  0  0
 39 38  1  0  0  0  0
 40 61  1  0  0  0  0
 40 62  1  0  0  0  0
 40 63  1  0  0  0  0
 41 39  1  0  0  0  0
 41 64  1  0  0  0  0
 41 65  1  0  0  0  0
 42 36  1  0  0  0  0
 42 41  1  0  0  0  0
 42 66  1  0  0  0  0
 42 67  1  0  0  0  0
M  END
>  <REMARK>
 VINA RESULT:      -7.8      2.853      8.160
  7 active torsions:
  status: ('A' for Active; 'I' for Inactive)
    1  A    between atoms: C_2  and  C_3 
       I    between atoms: C_3  and  N_5 
    2  A    between atoms: N_5  and  C_7 
    3  A    between atoms: C_9  and  N_10 
    4  A    between atoms: N_10  and  C_12 
    5  A    between atoms: C_18  and  C_19 
    6  A    between atoms: C_31  and  O_32 
    7  A    between atoms: C_35  and  N_36 

>  <TORSDO>
F 7

$$$$
resistance_project/docking/8faf60323ce63d5a/P00533_T790M/docked/molecule_0002_out.pdbqt
 OpenBabel09142609523D

 67 71  0  0  1  0  0  0  0  0999 V2000
  -49.7800   -0.9650  -18.4780 C   0  0  0  0  0  0  0  0  0  0  0  0
  -50.3120    0.0310  -19.2590 C   0  0  0  0  0  0  0  0  0  0  0  0
  -51.0260    1.1080  -18.7790 C   0  0  0  0  0  0  0  0  0  0  0  0
  -51.2230    1.1950  -17.4140 C   0  0  0  0  0  0  0  0  0  0  0  0
  -50.7060    0.2160  -16.5860 C   0  0  0  0  0  0  0  0  0  0  0  0
  -49.9950   -0.8510  -17.1030 C   0  0  0  0  0  0  0  0  0  0  0  0
  -51.5130    2.0410  -19.7140 N   0  0  0  0  0  0  0  0  0  0  0  0
  -51.3160    3.0260  -19.5450 H   0  0  0  0  0  0  0  0  0  0  0  0
  -52.2590    1.7090  -20.8780 C   0  0  1  0  0  0  0  0  0  0  0  0
  -53.5530    2.0620  -21.0280 N   0  0  0  0  0  0  0  0  0  0  0  0
  -54.2610    1.7410  -22.1520 C   0  0  0  0  0  0  0  0  0  0  0  0
  -54.0150    2.5830  -20.2820 H   0  0  0  0  0  0  0  0  0  0  0  0
  -53.6020    1.0280  -23.1550 C   0  0  0  0  0  0  0  0  0  0  0  0
  -54.4340    0.5730  -24.6340 Cl  0  0  0  0  0  0  0  0  0  0  0  0
  -52.2810    0.6660  -23.0040 C   0  0  0  0  0  0  0  0  0  0  0  0
  -51.6460    1.0140  -21.8750 N   0  0  0  0  0  0  0  0  0  0  0  0
  -50.6680    0.7480  -21.7590 H   0  0  0  0  0  0  0  0  0  0  0  0
  -51.6060   -0.0750  -24.0640 C   0  0  0  0  0  0  0  0  0  0  0  0
  -51.3410   -1.4220  -24.1010 C   0  0  0  0  0  0  0  0  0  0  0  0
  -51.6190   -2.4180  -23.1880 C   0  0  0  0  0  0  0  0  0  0  0  0
  -50.7110   -1.6330  -25.2680 N   0  0  0  0  0  0  0  0  0  0  0  0
  -51.2160   -3.7050  -23.5180 C   0  0  0  0  0  0  0  0  0  0  0  0
  -50.5670   -3.9520  -24.7100 C   0  0  0  0  0  0  0  0  0  0  0  0
  -50.3190   -2.8970  -25.5830 C   0  0  0  0  0  0  0  0  0  0  0  0
  -50.5660   -0.5290  -25.9520 N   0  0  0  0  0  0  0  0  0  0  0  0
  -51.1100    0.4580  -25.2360 C   0  0  0  0  0  0  0  0  0  0  0  0
  -50.1210   -0.4380  -26.8660 H   0  0  0  0  0  0  0  0  0  0  0  0
  -51.9420    2.2820  -16.9370 O   0  0  0  0  0  0  0  0  0  0  0  0
  -51.6230    2.7970  -15.6370 C   0  0  0  0  0  0  0  0  0  0  0  0
  -49.0480   -2.0710  -19.0040 N   0  0  0  0  0  0  0  0  0  0  0  0
  -49.7960   -3.1420  -19.6150 C   0  0  0  0  0  0  0  0  0  0  0  0
  -51.0490   -3.1520  -19.6350 O   0  0  0  0  0  0  0  0  0  0  0  0
  -48.0300   -2.1020  -18.9490 H   0  0  0  0  0  0  0  0  0  0  0  0
  -48.9770   -4.2090  -20.2080 C   0  0  0  0  0  0  0  0  0  0  0  0
  -49.5760   -5.2850  -20.7460 C   0  0  0  0  0  0  0  0  0  0  0  0
  -49.5100   -1.8190  -16.1790 N   0  0  0  0  0  0  0  0  0  0  0  0
  -50.2780   -2.9630  -15.7410 C   0  0  0  0  0  0  0  0  0  0  0  0
  -50.1570   -3.1450  -14.2270 C   0  0  0  0  0  0  0  0  0  0  0  0
  -49.5120   -1.9860  -13.6830 N   0  0  0  0  0  0  0  0  0  0  0  0
  -49.5780   -1.8600  -12.2570 C   0  0  0  0  0  0  0  0  0  0  0  0
  -48.1640   -1.7690  -14.1810 C   0  0  0  0  0  0  0  0  0  0  0  0
  -48.1470   -1.5900  -15.6780 C   0  0  0  0  0  0  0  0  0  0  0  0
  -50.1669   -0.0311  -20.2789 H   0  0  0  0  0  0  0  0  0  0  0  0
  -50.8530    0.2827  -15.5667 H   0  0  0  0  0  0  0  0  0  0  0  0
  -55.1013    1.1549  -21.8433 H   0  0  0  0  0  0  0  0  0  0  0  0
  -52.1044   -2.2157  -22.3001 H   0  0  0  0  0  0  0  0  0  0  0  0
  -50.5590   -4.0298  -22.7384 H   0  0  0  0  0  0  0  0  0  0  0  0
  -50.2683   -4.9097  -24.9520 H   0  0  0  0  0  0  0  0  0  0  0  0
  -49.8339   -3.0749  -26.4763 H   0  0  0  0  0  0  0  0  0  0  0  0
  -51.1523    1.4514  -25.5124 H   0  0  0  0  0  0  0  0  0  0  0  0
  -52.2605    3.6275  -15.4161 H   0  0  0  0  0  0  0  0  0  0  0  0
  -50.6020    3.1168  -15.6207 H   0  0  0  0  0  0  0  0  0  0  0  0
  -51.7685    2.0309  -14.9043 H   0  0  0  0  0  0  0  0  0  0  0  0
  -47.9479   -4.1322  -20.2111 H   0  0  0  0  0  0  0  0  0  0  0  0
  -50.6053   -5.3588  -20.7413 H   0  0  0  0  0  0  0  0  0  0  0  0
  -49.0066   -6.0375  -21.1639 H   0  0  0  0  0  0  0  0  0  0  0  0
  -49.9119   -3.8409  -16.2311 H   0  0  0  0  0  0  0  0  0  0  0  0
  -51.3067   -2.8030  -15.9881 H   0  0  0  0  0  0  0  0  0  0  0  0
  -49.5746   -4.0167  -14.0130 H   0  0  0  0  0  0  0  0  0  0  0  0
  -51.1272   -3.2645  -13.7920 H   0  0  0  0  0  0  0  0  0  0  0  0
  -50.5833   -2.0262  -11.9304 H   0  0  0  0  0  0  0  0  0  0  0  0
  -49.2681   -0.8766  -11.9711 H   0  0  0  0  0  0  0  0  0  0  0  0
  -48.9319   -2.5831  -11.8048 H   0  0  0  0  0  0  0  0  0  0  0  0
  -47.7615   -0.8904  -13.7217 H   0  0  0  0  0  0  0  0  0  0  0  0
  -47.5759   -2.6299  -13.9404 H   0  0  0  0  0  0  0  0  0  0  0  0
  -47.8330   -0.5965  -15.9213 H   0  0  0  0  0  0  0  0  0  0  0  0
  -47.4651   -2.2815  -16.1271 H   0  0  0  0  0  0  0  0  0  0  0  0
  1  6  2  0  0  0  0
  2  3  2  0  0  0  0
  2  1  1  0  0  0  0
  2 43  1  0  0  0  0
  3  4  1  0  0  0  0
  4 28  1  0  0  0  0
  4  5  2  0  0  0  0
  5 44  1  0  0  0  0
  6  5  1  0  0  0  0
  6 36  1  0  0  0  0
  7  8  1  0  0  0  0
  7  3  1  0  0  0  0
  9  7  1  6  0  0  0
 10  9  1  0  0  0  0
 10 12  1  0  0  0  0
 11 10  1  0  0  0  0
 11 45  1  0  0  0  0
 13 15  2  0  0  0  0
 13 11  1  0  0  0  0
 14 13  1  0  0  0  0
 15 16  1  0  0  0  0
 16 17  1  0  0  0  0
 16  9  1  0  0  0  0
 18 15  1  0  0  0  0
 19 18  1  0  0  0  0
 19 20  2  0  0  0  0
 20 46  1  0  0  0  0
 21 19  1  0  0  0  0
 22 20  1  0  0  0  0
 22 47  1  0  0  0  0
 23 22  1  0  0  0  0
 23 48  1  0  0  0  0
 24 21  1  0  0  0  0
 24 23  2  0  0  0  0
 24 49  1  0  0  0  0
 25 21  1  0  0  0  0
 25 26  1  0  0  0  0
 26 18  2  0  0  0  0
 26 50  1  0  0  0  0
 27 25  1  0  0  0  0
 28 29  1  0  0  0  0
 29 51  1  0  0  0  0
 29 52  1  0  0  0  0
 29 53  1  0  0  0  0
 30 33  1  0  0  0  0
 30  1  1  0  0  0  0
 31 30  1  0  0  0  0
 32 31  2  0  0  0  0
 34 31  1  0  0  0  0
 34 54  1  0  0  0  0
 35 34  2  0  0  0  0
 35 55  1  0  0  0  0
 35 56  1  0  0  0  0
 36 37  1  0  0  0  0
 36 42  1  0  0  0  0
 37 38  1  0  0  0  0
 37 57  1  0  0  0  0
 37 58  1  0  0  0  0
 38 39  1  0  0  0  0
 38 59  1  0  0  0  0
 38 60  1  0  0  0  0
 39 40  1  0  0  0  0
 40 61  1  0  0  0  0
 40 62  1  0  0  0  0
 40 63  1  0  0  0  0
 41 39  1  0  0  0  0
 41 64  1  0  0  0  0
 41 65  1  0  0  0  0
 42 41  1  0  0  0  0
 42 66  1  0  0  0  0
 42 67  1  0  0  0  0
M  END
>  <REMARK>
 VINA RESULT:      -7.7      2.965      8.853
  7 active torsions:
  status: ('A' for Active; 'I' for Inactive)
    1  A    between atoms: C_2  and  C_3 
       I    between atoms: C_3  and  N_5 
    2  A    between atoms: N_5  and  C_7 
    3  A    between atoms: C_9  and  N_10 
    4  A    between atoms: N_10  and  C_12 
    5  A    between atoms: C_18  and  C_19 
    6  A    between atoms: C_31  and  O_32 
    7  A    between atoms: C_35  and  N_36 

>  <TORSDO>
F 7

$$$$
resistance_project/docking/8faf60323ce63d5a/P00533_T790M/docked/molecule_0002_out.pdbqt
 OpenBabel09142609523D

 67 71  0  0  1  0  0  0  0  0999 V2000
  -49.8420   -1.9500  -15.6460 C   0  0  0  0  0  0  0  0  0  0  0  0
  -50.0270   -2.7130  -16.7710 C   0  0  0  0  0  0  0  0  0  0  0  0
  -50.4290   -2.2240  -17.9960 C   0  0  0  0  0  0  0  0  0  0  0  0
  -50.6640   -0.8660  -18.1020 C   0  0  0  0  0  0  0  0  0  0  0  0
  -50.4920   -0.0550  -16.9960 C   0  0  0  0  0  0  0  0  0  0  0  0
  -50.0880   -0.5820  -15.7830 C   0  0  0  0  0  0  0  0  0  0  0  0
  -50.5800   -3.1430  -19.0510 N   0  0  0  0  0  0  0  0  0  0  0  0
  -51.1090   -3.9940  -18.8640 H   0  0  0  0  0  0  0  0  0  0  0  0
  -50.0480   -2.9730  -20.3580 C   0  0  1  0  0  0  0  0  0  0  0  0
  -48.7360   -3.1390  -20.6290 N   0  0  0  0  0  0  0  0  0  0  0  0
  -48.2350   -2.9770  -21.8900 C   0  0  0  0  0  0  0  0  0  0  0  0
  -48.1010   -3.3950  -19.8720 H   0  0  0  0  0  0  0  0  0  0  0  0
  -49.1270   -2.6270  -22.9050 C   0  0  0  0  0  0  0  0  0  0  0  0
  -48.5710   -2.3980  -24.5560 Cl  0  0  0  0  0  0  0  0  0  0  0  0
  -50.4660   -2.4570  -22.6310 C   0  0  0  0  0  0  0  0  0  0  0  0
  -50.8910   -2.6330  -21.3710 N   0  0  0  0  0  0  0  0  0  0  0  0
  -51.8820   -2.5070  -21.1640 H   0  0  0  0  0  0  0  0  0  0  0  0
  -51.3860   -2.0960  -23.7050 C   0  0  0  0  0  0  0  0  0  0  0  0
  -52.0040   -0.8850  -23.9030 C   0  0  0  0  0  0  0  0  0  0  0  0
  -51.9400    0.2860  -23.1770 C   0  0  0  0  0  0  0  0  0  0  0  0
  -52.7460   -1.0360  -25.0120 N   0  0  0  0  0  0  0  0  0  0  0  0
  -52.6930    1.3560  -23.6390 C   0  0  0  0  0  0  0  0  0  0  0  0
  -53.4650    1.2290  -24.7750 C   0  0  0  0  0  0  0  0  0  0  0  0
  -53.4820    0.0170  -25.4580 C   0  0  0  0  0  0  0  0  0  0  0  0
  -52.6370   -2.2390  -25.5120 N   0  0  0  0  0  0  0  0  0  0  0  0
  -51.8010   -2.9240  -24.7280 C   0  0  0  0  0  0  0  0  0  0  0  0
  -53.1040   -2.5900  -26.3490 H   0  0  0  0  0  0  0  0  0  0  0  0
  -51.0680   -0.3800  -19.3370 O   0  0  0  0  0  0  0  0  0  0  0  0
  -52.3580    0.2370  -19.4410 C   0  0  0  0  0  0  0  0  0  0  0  0
  -49.4290   -2.4850  -14.3900 N   0  0  0  0  0  0  0  0  0  0  0  0
  -50.4300   -3.1160  -13.5660 C   0  0  0  0  0  0  0  0  0  0  0  0
  -51.6410   -3.1450  -13.8930 O   0  0  0  0  0  0  0  0  0  0  0  0
  -48.4570   -2.4240  -14.0860 H   0  0  0  0  0  0  0  0  0  0  0  0
  -49.9230   -3.7180  -12.3250 C   0  0  0  0  0  0  0  0  0  0  0  0
  -50.7870   -4.0990  -11.3700 C   0  0  0  0  0  0  0  0  0  0  0  0
  -49.9480    0.3250  -14.6940 N   0  0  0  0  0  0  0  0  0  0  0  0
  -48.6710    0.8100  -14.2170 C   0  0  0  0  0  0  0  0  0  0  0  0
  -48.6180    0.7690  -12.6890 C   0  0  0  0  0  0  0  0  0  0  0  0
  -49.7600    0.0410  -12.2160 N   0  0  0  0  0  0  0  0  0  0  0  0
  -49.7150   -0.3390  -10.8350 C   0  0  0  0  0  0  0  0  0  0  0  0
  -51.0340    0.6440  -12.5670 C   0  0  0  0  0  0  0  0  0  0  0  0
  -51.2030    0.7560  -14.0620 C   0  0  0  0  0  0  0  0  0  0  0  0
  -49.8525   -3.7273  -16.6949 H   0  0  0  0  0  0  0  0  0  0  0  0
  -50.6677    0.9587  -17.0767 H   0  0  0  0  0  0  0  0  0  0  0  0
  -47.4902   -2.2103  -21.8414 H   0  0  0  0  0  0  0  0  0  0  0  0
  -51.3581    0.3629  -22.3282 H   0  0  0  0  0  0  0  0  0  0  0  0
  -53.3572    1.6289  -22.8457 H   0  0  0  0  0  0  0  0  0  0  0  0
  -54.0252    2.0261  -25.1154 H   0  0  0  0  0  0  0  0  0  0  0  0
  -54.0571   -0.0836  -26.3090 H   0  0  0  0  0  0  0  0  0  0  0  0
  -51.5139   -3.9059  -24.8640 H   0  0  0  0  0  0  0  0  0  0  0  0
  -52.5202    0.5568  -20.4491 H   0  0  0  0  0  0  0  0  0  0  0  0
  -52.4027    1.0827  -18.7870 H   0  0  0  0  0  0  0  0  0  0  0  0
  -53.1139   -0.4680  -19.1645 H   0  0  0  0  0  0  0  0  0  0  0  0
  -48.9083   -3.8473  -12.1880 H   0  0  0  0  0  0  0  0  0  0  0  0
  -51.8011   -3.9684  -11.5098 H   0  0  0  0  0  0  0  0  0  0  0  0
  -50.4368   -4.5223  -10.4964 H   0  0  0  0  0  0  0  0  0  0  0  0
  -48.5319    1.8183  -14.5470 H   0  0  0  0  0  0  0  0  0  0  0  0
  -47.8960    0.1836  -14.6066 H   0  0  0  0  0  0  0  0  0  0  0  0
  -48.6380    1.7655  -12.2998 H   0  0  0  0  0  0  0  0  0  0  0  0
  -47.7172    0.2911  -12.3649 H   0  0  0  0  0  0  0  0  0  0  0  0
  -48.7638   -0.7777  -10.6166 H   0  0  0  0  0  0  0  0  0  0  0  0
  -50.4898   -1.0494  -10.6351 H   0  0  0  0  0  0  0  0  0  0  0  0
  -49.8578    0.5264  -10.2221 H   0  0  0  0  0  0  0  0  0  0  0  0
  -51.8243    0.0400  -12.1726 H   0  0  0  0  0  0  0  0  0  0  0  0
  -51.0628    1.6300  -12.1524 H   0  0  0  0  0  0  0  0  0  0  0  0
  -52.0067    0.1276  -14.3847 H   0  0  0  0  0  0  0  0  0  0  0  0
  -51.4300    1.7651  -14.3361 H   0  0  0  0  0  0  0  0  0  0  0  0
  1 30  1  0  0  0  0
  2  1  2  0  0  0  0
  2 43  1  0  0  0  0
  3  2  1  0  0  0  0
  4  3  2  0  0  0  0
  4  5  1  0  0  0  0
  5  6  2  0  0  0  0
  5 44  1  0  0  0  0
  6  1  1  0  0  0  0
  6 36  1  0  0  0  0
  7  8  1  0  0  0  0
  7  3  1  0  0  0  0
  9  7  1  6  0  0  0
 10  9  1  0  0  0  0
 10 12  1  0  0  0  0
 11 10  1  0  0  0  0
 11 45  1  0  0  0  0
 13 15  2  0  0  0  0
 13 11  1  0  0  0  0
 14 13  1  0  0  0  0
 15 16  1  0  0  0  0
 16 17  1  0  0  0  0
 16  9  1  0  0  0  0
 18 15  1  0  0  0  0
 19 18  1  0  0  0  0
 19 20  2  0  0  0  0
 20 46  1  0  0  0  0
 21 19  1  0  0  0  0
 22 20  1  0  0  0  0
 22 47  1  0  0  0  0
 23 22  1  0  0  0  0
 23 48  1  0  0  0  0
 24 21  1  0  0  0  0
 24 23  2  0  0  0  0
 24 49  1  0  0  0  0
 25 21  1  0  0  0  0
 25 26  1  0  0  0  0
 26 18  2  0  0  0  0
 26 50  1  0  0  0  0
 27 25  1  0  0  0  0
 28  4  1  0  0  0  0
 29 28  1  0  0  0  0
 29 51  1  0  0  0  0
 29 52  1  0  0  0  0
 29 53  1  0  0  0  0
 30 33  1  0  0  0  0
 30 31  1  0  0  0  0
 31 34  1  0  0  0  0
 32 31  2  0  0  0  0
 34 35  2  0  0  0  0
 34 54  1  0  0  0  0
 35 55  1  0  0  0  0
 35 56  1  0  0  0  0
 36 37  1  0  0  0  0
 36 42  1  0  0  0  0
 37 38  1  0  0  0  0
 37 57  1  0  0  0  0
 37 58  1  0  0  0  0
 38 39  1  0  0  0  0
 38 59  1  0  0  0  0
 38 60  1  0  0  0  0
 39 40  1  0  0  0  0
 40 61  1  0  0  0  0
 40 62  1  0  0  0  0
 40 63  1  0  0  0  0
 41 39  1  0  0  0  0
 41 64  1  0  0  0  0
 41 65  1  0  0  0  0
 42 41  1  0  0  0  0
 42 66  1  0  0  0  0
 42 67  1  0  0  0  0
M  END
>  <REMARK>
 VINA RESULT:      -7.4      3.067      9.223
  7 active torsions:
  status: ('A' for Active; 'I' for Inactive)
    1  A    between atoms: C_2  and  C_3 
       I    between atoms: C_3  and  N_5 
    2  A    between atoms: N_5  and  C_7 
    3  A    between atoms: C_9  and  N_10 
    4  A    between atoms: N_10  and  C_12 
    5  A    between atoms: C_18  and  C_19 
    6  A    between atoms: C_31  and  O_32 
    7  A    between atoms: C_35  and  N_36 

>  <TORSDO>
F 7

$$$$
resistance_project/docking/8faf60323ce63d5a/P00533_T790M/docked/molecule_0002_out.pdbqt
 OpenBabel09142609523D

 67 71  0  0  1  0  0  0  0  0999 V2000
  -49.6630   -1.1640  -18.5720 C   0  0  0  0  0  0  0  0  0  0  0  0
  -50.2040   -0.2460  -17.7070 C   0  0  0  0  0  0  0  0  0  0  0  0
  -51.3540    0.4760  -17.9470 C   0  0  0  0  0  0  0  0  0  0  0  0
  -52.0120    0.2630  -19.1430 C   0  0  0  0  0  0  0  0  0  0  0  0
  -51.5050   -0.6520  -20.0470 C   0  0  0  0  0  0  0  0  0  0  0  0
  -50.3490   -1.3580  -19.7720 C   0  0  0  0  0  0  0  0  0  0  0  0
  -51.7730    1.3870  -16.9590 N   0  0  0  0  0  0  0  0  0  0  0  0
  -52.4450    2.1030  -17.2310 H   0  0  0  0  0  0  0  0  0  0  0  0
  -51.3280    1.3820  -15.6090 C   0  0  1  0  0  0  0  0  0  0  0  0
  -50.2730    2.1180  -15.1960 N   0  0  0  0  0  0  0  0  0  0  0  0
  -49.8550    2.1090  -13.8960 C   0  0  0  0  0  0  0  0  0  0  0  0
  -49.7760    2.6970  -15.8740 H   0  0  0  0  0  0  0  0  0  0  0  0
  -50.5530    1.3070  -12.9920 C   0  0  0  0  0  0  0  0  0  0  0  0
  -50.0850    1.2340  -11.3000 Cl  0  0  0  0  0  0  0  0  0  0  0  0
  -51.6300    0.5550  -13.4100 C   0  0  0  0  0  0  0  0  0  0  0  0
  -51.9880    0.6110  -14.7020 N   0  0  0  0  0  0  0  0  0  0  0  0
  -52.7840    0.0560  -15.0160 H   0  0  0  0  0  0  0  0  0  0  0  0
  -52.3530   -0.2740  -12.4520 C   0  0  0  0  0  0  0  0  0  0  0  0
  -52.1960   -1.6200  -12.2290 C   0  0  0  0  0  0  0  0  0  0  0  0
  -51.3530   -2.5370  -12.8200 C   0  0  0  0  0  0  0  0  0  0  0  0
  -53.0730   -1.9290  -11.2590 N   0  0  0  0  0  0  0  0  0  0  0  0
  -51.4320   -3.8480  -12.3710 C   0  0  0  0  0  0  0  0  0  0  0  0
  -52.3230   -4.1940  -11.3760 C   0  0  0  0  0  0  0  0  0  0  0  0
  -53.1450   -3.2160  -10.8250 C   0  0  0  0  0  0  0  0  0  0  0  0
  -53.7560   -0.8850  -10.8680 N   0  0  0  0  0  0  0  0  0  0  0  0
  -53.3350    0.1590  -11.5860 C   0  0  0  0  0  0  0  0  0  0  0  0
  -54.4770   -0.8710  -10.1460 H   0  0  0  0  0  0  0  0  0  0  0  0
  -53.1690    0.9930  -19.3780 O   0  0  0  0  0  0  0  0  0  0  0  0
  -53.1040    2.1090  -20.2760 C   0  0  0  0  0  0  0  0  0  0  0  0
  -48.4690   -1.8950  -18.2980 N   0  0  0  0  0  0  0  0  0  0  0  0
  -48.5890   -3.1240  -17.5530 C   0  0  0  0  0  0  0  0  0  0  0  0
  -49.6870   -3.5210  -17.0950 O   0  0  0  0  0  0  0  0  0  0  0  0
  -47.5610   -1.5590  -18.6180 H   0  0  0  0  0  0  0  0  0  0  0  0
  -47.3330   -3.8670  -17.3760 C   0  0  0  0  0  0  0  0  0  0  0  0
  -46.4120   -3.4180  -16.5070 C   0  0  0  0  0  0  0  0  0  0  0  0
  -49.8930   -2.2710  -20.7650 N   0  0  0  0  0  0  0  0  0  0  0  0
  -48.9720   -1.9110  -21.8200 C   0  0  0  0  0  0  0  0  0  0  0  0
  -49.4430   -2.4790  -23.1610 C   0  0  0  0  0  0  0  0  0  0  0  0
  -50.7720   -2.9890  -22.9940 N   0  0  0  0  0  0  0  0  0  0  0  0
  -51.4690   -3.2920  -24.2090 C   0  0  0  0  0  0  0  0  0  0  0  0
  -50.8750   -4.0710  -22.0300 C   0  0  0  0  0  0  0  0  0  0  0  0
  -50.4210   -3.6390  -20.6590 C   0  0  0  0  0  0  0  0  0  0  0  0
  -49.7150   -0.0845  -16.8127 H   0  0  0  0  0  0  0  0  0  0  0  0
  -51.9969   -0.8102  -20.9403 H   0  0  0  0  0  0  0  0  0  0  0  0
  -49.9088    3.1155  -13.5368 H   0  0  0  0  0  0  0  0  0  0  0  0
  -50.6925   -2.2609  -13.5633 H   0  0  0  0  0  0  0  0  0  0  0  0
  -50.4575   -4.1094  -12.0147 H   0  0  0  0  0  0  0  0  0  0  0  0
  -52.3792   -5.1693  -11.0435 H   0  0  0  0  0  0  0  0  0  0  0  0
  -53.8144   -3.4690  -10.0814 H   0  0  0  0  0  0  0  0  0  0  0  0
  -53.6853    1.1265  -11.5064 H   0  0  0  0  0  0  0  0  0  0  0  0
  -54.0697    2.5637  -20.3504 H   0  0  0  0  0  0  0  0  0  0  0  0
  -52.7934    1.7714  -21.2426 H   0  0  0  0  0  0  0  0  0  0  0  0
  -52.4004    2.8247  -19.9051 H   0  0  0  0  0  0  0  0  0  0  0  0
  -47.1596   -4.7289  -17.9164 H   0  0  0  0  0  0  0  0  0  0  0  0
  -46.5882   -2.5558  -15.9680 H   0  0  0  0  0  0  0  0  0  0  0  0
  -45.5283   -3.9354  -16.3785 H   0  0  0  0  0  0  0  0  0  0  0  0
  -48.9159   -0.8447  -21.8896 H   0  0  0  0  0  0  0  0  0  0  0  0
  -48.0089   -2.3173  -21.5916 H   0  0  0  0  0  0  0  0  0  0  0  0
  -49.4428   -1.7062  -23.9010 H   0  0  0  0  0  0  0  0  0  0  0  0
  -48.7863   -3.2611  -23.4802 H   0  0  0  0  0  0  0  0  0  0  0  0
  -51.3697   -2.4734  -24.8908 H   0  0  0  0  0  0  0  0  0  0  0  0
  -52.5047   -3.4543  -23.9950 H   0  0  0  0  0  0  0  0  0  0  0  0
  -51.0530   -4.1745  -24.6483 H   0  0  0  0  0  0  0  0  0  0  0  0
  -50.2642   -4.8864  -22.3569 H   0  0  0  0  0  0  0  0  0  0  0  0
  -51.9020   -4.3643  -21.9651 H   0  0  0  0  0  0  0  0  0  0  0  0
  -49.6550   -4.2975  -20.3060 H   0  0  0  0  0  0  0  0  0  0  0  0
  -51.2391   -3.6692  -19.9700 H   0  0  0  0  0  0  0  0  0  0  0  0
  1 30  1  0  0  0  0
  1  2  2  0  0  0  0
  2 43  1  0  0  0  0
  3  2  1  0  0  0  0
  3  7  1  0  0  0  0
  4  3  2  0  0  0  0
  5  6  2  0  0  0  0
  5  4  1  0  0  0  0
  5 44  1  0  0  0  0
  6  1  1  0  0  0  0
  8  7  1  0  0  0  0
  9  7  1  1  0  0  0
  9 10  1  0  0  0  0
  9 16  1  0  0  0  0
 10 11  1  0  0  0  0
 11 13  1  0  0  0  0
 11 45  1  0  0  0  0
 12 10  1  0  0  0  0
 13 14  1  0  0  0  0
 15 13  2  0  0  0  0
 15 18  1  0  0  0  0
 16 15  1  0  0  0  0
 17 16  1  0  0  0  0
 18 19  1  0  0  0  0
 18 26  2  0  0  0  0
 19 21  1  0  0  0  0
 20 22  1  0  0  0  0
 20 19  2  0  0  0  0
 20 46  1  0  0  0  0
 21 25  1  0  0  0  0
 21 24  1  0  0  0  0
 22 23  1  0  0  0  0
 22 47  1  0  0  0  0
 23 24  2  0  0  0  0
 23 48  1  0  0  0  0
 24 49  1  0  0  0  0
 25 27  1  0  0  0  0
 26 25  1  0  0  0  0
 26 50  1  0  0  0  0
 28  4  1  0  0  0  0
 29 28  1  0  0  0  0
 29 51  1  0  0  0  0
 29 52  1  0  0  0  0
 29 53  1  0  0  0  0
 30 31  1  0  0  0  0
 31 34  1  0  0  0  0
 31 32  2  0  0  0  0
 33 30  1  0  0  0  0
 34 35  2  0  0  0  0
 34 54  1  0  0  0  0
 35 55  1  0  0  0  0
 35 56  1  0  0  0  0
 36 42  1  0  0  0  0
 36  6  1  0  0  0  0
 37 36  1  0  0  0  0
 37 57  1  0  0  0  0
 37 58  1  0  0  0  0
 38 39  1  0  0  0  0
 38 37  1  0  0  0  0
 38 59  1  0  0  0  0
 38 60  1  0  0  0  0
 39 41  1  0  0  0  0
 40 39  1  0  0  0  0
 40 61  1  0  0  0  0
 40 62  1  0  0  0  0
 40 63  1  0  0  0  0
 41 42  1  0  0  0  0
 41 64  1  0  0  0  0
 41 65  1  0  0  0  0
 42 66  1  0  0  0  0
 42 67  1  0  0  0  0
M  END
>  <REMARK>
 VINA RESULT:      -7.3      2.908      5.369
  7 active torsions:
  status: ('A' for Active; 'I' for Inactive)
    1  A    between atoms: C_2  and  C_3 
       I    between atoms: C_3  and  N_5 
    2  A    between atoms: N_5  and  C_7 
    3  A    between atoms: C_9  and  N_10 
    4  A    between atoms: N_10  and  C_12 
    5  A    between atoms: C_18  and  C_19 
    6  A    between atoms: C_31  and  O_32 
    7  A    between atoms: C_35  and  N_36 

>  <TORSDO>
F 7

$$$$
resistance_project/docking/8faf60323ce63d5a/P00533_T790M/docked/molecule_0002_out.pdbqt
 OpenBabel09142609523D

 67 71  0  0  1  0  0  0  0  0999 V2000
  -50.0650   -0.9750  -18.7390 C   0  0  0  0  0  0  0  0  0  0  0  0
  -50.6640    0.0390  -18.0350 C   0  0  0  0  0  0  0  0  0  0  0  0
  -51.8070    0.7030  -18.4310 C   0  0  0  0  0  0  0  0  0  0  0  0
  -52.3940    0.3210  -19.6210 C   0  0  0  0  0  0  0  0  0  0  0  0
  -51.8280   -0.6960  -20.3670 C   0  0  0  0  0  0  0  0  0  0  0  0
  -50.6810   -1.3390  -19.9390 C   0  0  0  0  0  0  0  0  0  0  0  0
  -52.2900    1.7290  -17.5970 N   0  0  0  0  0  0  0  0  0  0  0  0
  -52.9510    2.3920  -17.9990 H   0  0  0  0  0  0  0  0  0  0  0  0
  -51.9230    1.9090  -16.2350 C   0  0  1  0  0  0  0  0  0  0  0  0
  -51.5540    3.1100  -15.7420 N   0  0  0  0  0  0  0  0  0  0  0  0
  -51.2070    3.2730  -14.4310 C   0  0  0  0  0  0  0  0  0  0  0  0
  -51.5360    3.9180  -16.3650 H   0  0  0  0  0  0  0  0  0  0  0  0
  -51.2410    2.1500  -13.6030 C   0  0  0  0  0  0  0  0  0  0  0  0
  -50.8110    2.2670  -11.9030 Cl  0  0  0  0  0  0  0  0  0  0  0  0
  -51.6170    0.9230  -14.1040 C   0  0  0  0  0  0  0  0  0  0  0  0
  -51.9470    0.8330  -15.4010 N   0  0  0  0  0  0  0  0  0  0  0  0
  -52.2260   -0.0730  -15.7770 H   0  0  0  0  0  0  0  0  0  0  0  0
  -51.6540   -0.2400  -13.2240 C   0  0  0  0  0  0  0  0  0  0  0  0
  -50.7570   -1.2800  -13.1790 C   0  0  0  0  0  0  0  0  0  0  0  0
  -49.6180   -1.5180  -13.9200 C   0  0  0  0  0  0  0  0  0  0  0  0
  -51.2060   -2.1010  -12.2160 N   0  0  0  0  0  0  0  0  0  0  0  0
  -48.9110   -2.6780  -13.6350 C   0  0  0  0  0  0  0  0  0  0  0  0
  -49.3490   -3.5400  -12.6510 C   0  0  0  0  0  0  0  0  0  0  0  0
  -50.5080   -3.2370  -11.9430 C   0  0  0  0  0  0  0  0  0  0  0  0
  -52.3040   -1.6540  -11.6650 N   0  0  0  0  0  0  0  0  0  0  0  0
  -52.6100   -0.5020  -12.2650 C   0  0  0  0  0  0  0  0  0  0  0  0
  -52.8290   -2.1030  -10.9140 H   0  0  0  0  0  0  0  0  0  0  0  0
  -53.5440    0.9920  -20.0140 O   0  0  0  0  0  0  0  0  0  0  0  0
  -53.5190    1.7330  -21.2410 C   0  0  0  0  0  0  0  0  0  0  0  0
  -48.8810   -1.6410  -18.3060 N   0  0  0  0  0  0  0  0  0  0  0  0
  -49.0300   -2.7710  -17.4230 C   0  0  0  0  0  0  0  0  0  0  0  0
  -50.1480   -3.1310  -16.9850 O   0  0  0  0  0  0  0  0  0  0  0  0
  -47.9590   -1.3280  -18.6120 H   0  0  0  0  0  0  0  0  0  0  0  0
  -47.7780   -3.4600  -17.0800 C   0  0  0  0  0  0  0  0  0  0  0  0
  -46.6430   -2.7530  -16.9540 C   0  0  0  0  0  0  0  0  0  0  0  0
  -50.1600   -2.3670  -20.7750 N   0  0  0  0  0  0  0  0  0  0  0  0
  -50.4950   -3.7660  -20.6240 C   0  0  0  0  0  0  0  0  0  0  0  0
  -49.2380   -4.6330  -20.7310 C   0  0  0  0  0  0  0  0  0  0  0  0
  -48.0920   -3.7720  -20.7110 N   0  0  0  0  0  0  0  0  0  0  0  0
  -46.8350   -4.4300  -20.5110 C   0  0  0  0  0  0  0  0  0  0  0  0
  -48.0370   -2.8300  -21.8160 C   0  0  0  0  0  0  0  0  0  0  0  0
  -49.2400   -1.9210  -21.8300 C   0  0  0  0  0  0  0  0  0  0  0  0
  -50.2281    0.3259  -17.1447 H   0  0  0  0  0  0  0  0  0  0  0  0
  -52.2680   -0.9795  -21.2564 H   0  0  0  0  0  0  0  0  0  0  0  0
  -51.8735    3.9980  -14.0125 H   0  0  0  0  0  0  0  0  0  0  0  0
  -49.3055   -0.8628  -14.6535 H   0  0  0  0  0  0  0  0  0  0  0  0
  -47.9225   -2.3749  -13.3595 H   0  0  0  0  0  0  0  0  0  0  0  0
  -48.8217   -4.4021  -12.4418 H   0  0  0  0  0  0  0  0  0  0  0  0
  -50.8406   -3.8781  -11.2058 H   0  0  0  0  0  0  0  0  0  0  0  0
  -53.4249    0.0928  -12.0479 H   0  0  0  0  0  0  0  0  0  0  0  0
  -54.4736    2.1889  -21.4019 H   0  0  0  0  0  0  0  0  0  0  0  0
  -53.2983    1.0716  -22.0526 H   0  0  0  0  0  0  0  0  0  0  0  0
  -52.7665    2.4916  -21.1843 H   0  0  0  0  0  0  0  0  0  0  0  0
  -47.7710   -4.4820  -16.9367 H   0  0  0  0  0  0  0  0  0  0  0  0
  -46.6529   -1.7311  -17.0979 H   0  0  0  0  0  0  0  0  0  0  0  0
  -45.7610   -3.2316  -16.7133 H   0  0  0  0  0  0  0  0  0  0  0  0
  -51.1838   -4.0481  -21.3927 H   0  0  0  0  0  0  0  0  0  0  0  0
  -50.9364   -3.9140  -19.6606 H   0  0  0  0  0  0  0  0  0  0  0  0
  -49.1951   -5.3111  -19.9044 H   0  0  0  0  0  0  0  0  0  0  0  0
  -49.2574   -5.1985  -21.6391 H   0  0  0  0  0  0  0  0  0  0  0  0
  -46.0485   -3.7045  -20.5122 H   0  0  0  0  0  0  0  0  0  0  0  0
  -46.6717   -5.1344  -21.2997 H   0  0  0  0  0  0  0  0  0  0  0  0
  -46.8461   -4.9424  -19.5717 H   0  0  0  0  0  0  0  0  0  0  0  0
  -47.1529   -2.2347  -21.7213 H   0  0  0  0  0  0  0  0  0  0  0  0
  -48.0267   -3.3861  -22.7301 H   0  0  0  0  0  0  0  0  0  0  0  0
  -49.7254   -1.9762  -22.7820 H   0  0  0  0  0  0  0  0  0  0  0  0
  -48.9417   -0.9079  -21.6584 H   0  0  0  0  0  0  0  0  0  0  0  0
  1 30  1  0  0  0  0
  1  2  2  0  0  0  0
  2 43  1  0  0  0  0
  3  2  1  0  0  0  0
  3  7  1  0  0  0  0
  4  3  2  0  0  0  0
  5  6  2  0  0  0  0
  5  4  1  0  0  0  0
  5 44  1  0  0  0  0
  6  1  1  0  0  0  0
  8  7  1  0  0  0  0
  9  7  1  1  0  0  0
  9 10  1  0  0  0  0
  9 16  1  0  0  0  0
 10 11  1  0  0  0  0
 11 13  1  0  0  0  0
 11 45  1  0  0  0  0
 12 10  1  0  0  0  0
 13 14  1  0  0  0  0
 15 13  2  0  0  0  0
 15 18  1  0  0  0  0
 16 15  1  0  0  0  0
 17 16  1  0  0  0  0
 18 19  1  0  0  0  0
 18 26  2  0  0  0  0
 19 21  1  0  0  0  0
 20 22  1  0  0  0  0
 20 19  2  0  0  0  0
 20 46  1  0  0  0  0
 21 24  1  0  0  0  0
 21 25  1  0  0  0  0
 22 23  1  0  0  0  0
 22 47  1  0  0  0  0
 23 24  2  0  0  0  0
 23 48  1  0  0  0  0
 24 49  1  0  0  0  0
 25 27  1  0  0  0  0
 26 25  1  0  0  0  0
 26 50  1  0  0  0  0
 28  4  1  0  0  0  0
 29 28  1  0  0  0  0
 29 51  1  0  0  0  0
 29 52  1  0  0  0  0
 29 53  1  0  0  0  0
 30 31  1  0  0  0  0
 31 34  1  0  0  0  0
 31 32  2  0  0  0  0
 33 30  1  0  0  0  0
 34 35  2  0  0  0  0
 34 54  1  0  0  0  0
 35 55  1  0  0  0  0
 35 56  1  0  0  0  0
 36 37  1  0  0  0  0
 36  6  1  0  0  0  0
 37 57  1  0  0  0  0
 37 58  1  0  0  0  0
 38 39  1  0  0  0  0
 38 37  1  0  0  0  0
 38 59  1  0  0  0  0
 38 60  1  0  0  0  0
 39 40  1  0  0  0  0
 40 61  1  0  0  0  0
 40 62  1  0  0  0  0
 40 63  1  0  0  0  0
 41 39  1  0  0  0  0
 41 64  1  0  0  0  0
 41 65  1  0  0  0  0
 42 41  1  0  0  0  0
 42 36  1  0  0  0  0
 42 66  1  0  0  0  0
 42 67  1  0  0  0  0
M  END
>  <REMARK>
 VINA RESULT:      -7.3      2.535      5.587
  7 active torsions:
  status: ('A' for Active; 'I' for Inactive)
    1  A    between atoms: C_2  and  C_3 
       I    between atoms: C_3  and  N_5 
    2  A    between atoms: N_5  and  C_7 
    3  A    between atoms: C_9  and  N_10 
    4  A    between atoms: N_10  and  C_12 
    5  A    between atoms: C_18  and  C_19 
    6  A    between atoms: C_31  and  O_32 
    7  A    between atoms: C_35  and  N_36 

>  <TORSDO>
F 7

$$$$
