
     RDKit          3D

 38 42  0  0  0  0  0  0  0  0999 V2000
   12.8031    1.1430    2.0808 C   0  0  0  0  0  0  0  0  0  0  0  0
   12.1107    1.8538    0.9264 C   0  0  0  0  0  0  0  0  0  0  0  0
   10.6647    1.5548    0.9935 C   0  0  0  0  0  0  0  0  0  0  0  0
    9.7162    2.4541    1.4297 C   0  0  0  0  0  0  0  0  0  0  0  0
    8.5079    1.8091    1.3435 C   0  0  0  0  0  0  0  0  0  0  0  0
    7.2767    2.4165    1.7095 N   0  0  0  0  0  0  0  0  0  0  0  0
    7.1402    3.6092    2.4453 C   0  0  0  0  0  0  0  0  0  0  0  0
    8.1843    4.2376    2.7632 O   0  0  0  0  0  0  0  0  0  0  0  0
    5.8430    4.0428    2.7914 N   0  0  0  0  0  0  0  0  0  0  0  0
    5.5963    5.1495    3.6513 C   0  0  0  0  0  0  0  0  0  0  0  0
    6.7023    5.8703    4.0609 C   0  0  0  0  0  0  0  0  0  0  0  0
    6.5597    6.9591    4.8969 C   0  0  0  0  0  0  0  0  0  0  0  0
    5.2738    7.3150    5.3189 C   0  0  0  0  0  0  0  0  0  0  0  0
    5.2144    8.4843    6.2058 C   0  0  0  0  0  0  0  0  0  0  0  0
    4.3893    9.2743    6.7398 C   0  0  0  0  0  0  0  0  0  0  0  0
    4.7633   10.2560    7.5189 N   0  0  0  0  0  0  0  0  0  0  0  0
    5.8735   10.5466    7.8324 C   0  0  0  0  0  0  0  0  0  0  0  0
    6.6167   11.4791    8.6064 N   0  0  0  0  0  0  0  0  0  0  0  0
    6.0475   12.3890    9.5338 C   0  0  0  0  0  0  0  0  0  0  0  0
    6.6391   13.5437    9.9026 N   0  0  0  0  0  0  0  0  0  0  0  0
    6.0577   14.3746   10.7911 C   0  0  0  0  0  0  0  0  0  0  0  0
    6.7145   15.6607   11.2033 C   0  0  0  0  0  0  0  0  0  0  0  0
    4.8651   14.0850   11.3442 N   0  0  0  0  0  0  0  0  0  0  0  0
    4.2671   12.9407   10.9855 C   0  0  0  0  0  0  0  0  0  0  0  0
    2.9909   12.6174   11.5736 N   0  0  0  0  0  0  0  0  0  0  0  0
    2.3537   11.3614   11.2867 C   0  0  0  0  0  0  0  0  0  0  0  0
    0.8934   11.5959   10.9974 C   0  0  0  0  0  0  0  0  0  0  0  0
    0.2371   12.4567   11.9363 N   0  0  0  0  0  0  0  0  0  0  0  0
   -0.6452   13.4264   11.3586 C   0  0  0  0  0  0  0  0  0  0  0  0
    0.0905   14.5314   10.6330 C   0  0  0  0  0  0  0  0  0  0  0  0
    1.0882   12.9739   12.9764 C   0  0  0  0  0  0  0  0  0  0  0  0
    2.3554   13.5858   12.4639 C   0  0  0  0  0  0  0  0  0  0  0  0
    4.8388   12.0730   10.0800 C   0  0  0  0  0  0  0  0  0  0  0  0
    6.8368    9.1967    6.8829 S   0  0  0  0  0  0  0  0  0  0  0  0
    4.1554    6.6154    4.9264 C   0  0  0  0  0  0  0  0  0  0  0  0
    4.3367    5.5151    4.0772 C   0  0  0  0  0  0  0  0  0  0  0  0
    8.7539    0.5731    0.8712 N   0  0  0  0  0  0  0  0  0  0  0  0
   10.0266    0.4730    0.6825 O   0  0  0  0  0  0  0  0  0  0  0  0
  1  2  1  0
  2  3  1  0
  3  4  2  0
  4  5  1  0
  5  6  1  0
  6  7  1  0
  7  8  2  0
  7  9  1  0
  9 10  1  0
 10 11  1  0
 11 12  2  0
 12 13  1  0
 13 14  1  0
 14 15  2  0
 15 16  1  0
 16 17  2  0
 17 18  1  0
 18 19  1  0
 19 20  1  0
 20 21  2  0
 21 22  1  0
 21 23  1  0
 23 24  2  0
 24 25  1  0
 25 26  1  0
 26 27  1  0
 27 28  1  0
 28 29  1  0
 29 30  1  0
 28 31  1  0
 31 32  1  0
 24 33  1  0
 17 34  1  0
 13 35  2  0
 35 36  1  0
  5 37  2  0
 37 38  1  0
 38  3  1  0
 36 10  2  0
 34 14  1  0
 33 19  2  0
 32 25  1  0
M  END
>  <Smiles>  (1) 
CCc1cc(NC(=O)Nc2ccc(-c3cnc(Nc4nc(C)nc(N5CCN(CC)CC5)c4)s3)cc2)no1

>  <GEO>  (1) 
1.83 -0.24 0.06 3.02 0.09 2.98 0.19 -2.72 -3.07 -1.25

>  <target1>  (1) 
Q9UM73_WT

>  <target2>  (1) 
Q9UM73_L1196M

$$$$
