
     RDKit          3D

 34 37  0  0  0  0  0  0  0  0999 V2000
   -8.9333    1.3900    0.2486 C   0  0  0  0  0  0  0  0  0  0  0  0
   -8.0805    1.1084   -0.8964 N   0  0  0  0  0  0  0  0  0  0  0  0
   -8.6127    1.3821   -2.2336 C   0  0  0  0  0  0  0  0  0  0  0  0
   -6.7819    0.5862   -0.6845 C   0  0  0  0  0  0  0  0  0  0  0  0
   -6.2714    0.3747    0.5940 C   0  0  0  0  0  0  0  0  0  0  0  0
   -4.9974   -0.1372    0.7416 C   0  0  0  0  0  0  0  0  0  0  0  0
   -4.1997   -0.4515   -0.3433 C   0  0  0  0  0  0  0  0  0  0  0  0
   -2.8799   -0.9771   -0.0903 C   0  0  0  0  0  0  0  0  0  0  0  0
   -1.7457   -0.2430    0.0752 C   0  0  0  0  0  0  0  0  0  0  0  0
   -0.5471   -0.8807    0.3120 C   0  0  0  0  0  0  0  0  0  0  0  0
   -0.4215   -2.2528    0.3941 C   0  0  0  0  0  0  0  0  0  0  0  0
    0.8588   -2.8434    0.6431 N   0  0  0  0  0  0  0  0  0  0  0  0
    1.0700   -4.2188    0.5100 C   0  0  0  0  0  0  0  0  0  0  0  0
    0.1260   -4.9415    0.0997 O   0  0  0  0  0  0  0  0  0  0  0  0
    2.2953   -4.8861    0.8075 N   0  0  0  0  0  0  0  0  0  0  0  0
    2.4298   -6.3018    0.5758 C   0  0  0  0  0  0  0  0  0  0  0  0
    1.5268   -6.9922   -0.1874 C   0  0  0  0  0  0  0  0  0  0  0  0
    1.7049   -8.3666   -0.3806 C   0  0  0  0  0  0  0  0  0  0  0  0
    2.7925   -9.0249    0.1997 C   0  0  0  0  0  0  0  0  0  0  0  0
    2.9012  -10.3855   -0.0368 O   0  0  0  0  0  0  0  0  0  0  0  0
    1.9855  -11.0947   -0.8567 C   0  0  0  0  0  0  0  0  0  0  0  0
    2.3559  -12.4328   -0.9683 F   0  0  0  0  0  0  0  0  0  0  0  0
    0.6921  -10.9872   -0.3801 F   0  0  0  0  0  0  0  0  0  0  0  0
    1.9602  -10.5781   -2.1574 F   0  0  0  0  0  0  0  0  0  0  0  0
    3.7024   -8.3173    0.9715 C   0  0  0  0  0  0  0  0  0  0  0  0
    3.5017   -6.9468    1.1486 C   0  0  0  0  0  0  0  0  0  0  0  0
   -1.5670   -2.9941    0.2270 C   0  0  0  0  0  0  0  0  0  0  0  0
   -2.7738   -2.3723   -0.0106 C   0  0  0  0  0  0  0  0  0  0  0  0
   -4.7302   -0.2323   -1.5961 C   0  0  0  0  0  0  0  0  0  0  0  0
   -4.2239   -0.4307   -2.8402 C   0  0  0  0  0  0  0  0  0  0  0  0
   -2.9564   -0.9406   -3.1620 N   0  0  0  0  0  0  0  0  0  0  0  0
   -5.1421   -0.0583   -3.7608 N   0  0  0  0  0  0  0  0  0  0  0  0
   -6.1863    0.3583   -3.0956 N   0  0  0  0  0  0  0  0  0  0  0  0
   -6.0036    0.2796   -1.7764 C   0  0  0  0  0  0  0  0  0  0  0  0
  1  2  1  0
  2  3  1  0
  2  4  1  0
  4  5  2  0
  5  6  1  0
  6  7  2  0
  7  8  1  0
  8  9  1  0
  9 10  2  0
 10 11  1  0
 11 12  1  0
 12 13  1  0
 13 14  2  0
 13 15  1  0
 15 16  1  0
 16 17  1  0
 17 18  2  0
 18 19  1  0
 19 20  1  0
 20 21  1  0
 21 22  1  0
 21 23  1  0
 21 24  1  0
 19 25  2  0
 25 26  1  0
 11 27  2  0
 27 28  1  0
  7 29  1  0
 29 30  2  0
 30 31  1  0
 30 32  1  0
 32 33  1  0
 33 34  2  0
 34  4  1  0
 28  8  2  0
 34 29  1  0
 26 16  2  0
M  END
>  <Smiles>  (1) 
CN(C)c1ccc(-c2ccc(NC(=O)Nc3ccc(OC(F)(F)F)cc3)cc2)c2c(N)[nH]nc12

>  <GEO>  (1) 
-0.04 -1.55 -2.95 0.06 -3.09 0.25 0.03 3.10

>  <target1>  (1) 
Q9UM73_WT

>  <target2>  (1) 
Q9UM73_L1196M

$$$$
