
     RDKit          3D

 30 32  0  0  0  0  0  0  0  0999 V2000
    7.9210   -1.6493    2.4144 C   0  0  0  0  0  0  0  0  0  0  0  0
    6.9377   -1.0884    1.4887 N   0  0  0  0  0  0  0  0  0  0  0  0
    7.0383    0.3091    1.2239 C   0  0  0  0  0  0  0  0  0  0  0  0
    7.8788    0.9864    1.8735 O   0  0  0  0  0  0  0  0  0  0  0  0
    6.2039    0.9766    0.2304 C   0  0  0  0  0  0  0  0  0  0  0  0
    6.6976    2.1357   -0.3339 C   0  0  0  0  0  0  0  0  0  0  0  0
    5.9280    2.7774   -1.2696 C   0  0  0  0  0  0  0  0  0  0  0  0
    4.6962    2.2582   -1.6206 C   0  0  0  0  0  0  0  0  0  0  0  0
    4.1796    1.1018   -1.0720 C   0  0  0  0  0  0  0  0  0  0  0  0
    2.9111    0.5670   -1.4334 N   0  0  0  0  0  0  0  0  0  0  0  0
    2.1468    1.2170   -2.4584 C   0  0  0  0  0  0  0  0  0  0  0  0
    2.5573    2.2402   -3.0627 O   0  0  0  0  0  0  0  0  0  0  0  0
    0.8971    0.6693   -2.7793 N   0  0  0  0  0  0  0  0  0  0  0  0
    0.0833    1.2204   -3.8075 C   0  0  0  0  0  0  0  0  0  0  0  0
    0.5847    2.3472   -4.4601 C   0  0  0  0  0  0  0  0  0  0  0  0
   -0.1030    2.9801   -5.4756 C   0  0  0  0  0  0  0  0  0  0  0  0
   -1.3358    2.4257   -5.8148 C   0  0  0  0  0  0  0  0  0  0  0  0
   -2.0741    3.0710   -6.8752 C   0  0  0  0  0  0  0  0  0  0  0  0
   -1.8479    2.6513   -8.1736 C   0  0  0  0  0  0  0  0  0  0  0  0
   -0.8669    1.5646   -8.4413 C   0  0  0  0  0  0  0  0  0  0  0  0
   -2.5327    3.2386   -9.2396 C   0  0  0  0  0  0  0  0  0  0  0  0
   -3.4598    4.2613   -9.0188 C   0  0  0  0  0  0  0  0  0  0  0  0
   -3.6833    4.6779   -7.7212 C   0  0  0  0  0  0  0  0  0  0  0  0
   -4.6094    5.7140   -7.3947 N   0  0  0  0  0  0  0  0  0  0  0  0
   -5.2274    6.5424   -8.4114 C   0  0  0  0  0  0  0  0  0  0  0  0
   -4.9199    5.9175   -5.9901 C   0  0  0  0  0  0  0  0  0  0  0  0
   -2.9932    4.0816   -6.6795 C   0  0  0  0  0  0  0  0  0  0  0  0
   -1.8140    1.2959   -5.1441 C   0  0  0  0  0  0  0  0  0  0  0  0
   -1.1143    0.6962   -4.1496 N   0  0  0  0  0  0  0  0  0  0  0  0
    4.9771    0.4639   -0.1225 C   0  0  0  0  0  0  0  0  0  0  0  0
  1  2  1  0
  2  3  1  0
  3  4  2  0
  3  5  1  0
  5  6  2  0
  6  7  1  0
  7  8  2  0
  8  9  1  0
  9 10  1  0
 10 11  1  0
 11 12  2  0
 11 13  1  0
 13 14  1  0
 14 15  1  0
 15 16  2  0
 16 17  1  0
 17 18  1  0
 18 19  2  0
 19 20  1  0
 19 21  1  0
 21 22  2  0
 22 23  1  0
 23 24  1  0
 24 25  1  0
 24 26  1  0
 23 27  2  0
 17 28  2  0
 28 29  1  0
  9 30  2  0
 30  5  1  0
 29 14  2  0
 27 18  1  0
M  END
>  <Smiles>  (1) 
CNC(=O)c1cccc(NC(=O)Nc2ccc(-c3c(C)ccc(N(C)C)c3)cn2)c1

>  <GEO>  (1) 
-0.10 -2.70 0.05 0.01 -3.11 -0.02 1.56 -0.17

>  <target1>  (1) 
Q9UM73_WT

>  <target2>  (1) 
Q9UM73_L1196M

$$$$
