
     RDKit          3D

 40 44  0  0  0  0  0  0  0  0999 V2000
    8.5126    2.5840    3.7081 C   0  0  0  0  0  0  0  0  0  0  0  0
    7.6383    1.7252    2.9748 O   0  0  0  0  0  0  0  0  0  0  0  0
    7.0454    2.2176    1.8075 C   0  0  0  0  0  0  0  0  0  0  0  0
    7.2460    3.3657    1.3633 O   0  0  0  0  0  0  0  0  0  0  0  0
    6.1527    1.3191    1.0974 C   0  0  0  0  0  0  0  0  0  0  0  0
    5.3984    1.7959    0.0453 C   0  0  0  0  0  0  0  0  0  0  0  0
    4.5398    0.9619   -0.6482 C   0  0  0  0  0  0  0  0  0  0  0  0
    4.3858   -0.3755   -0.3379 C   0  0  0  0  0  0  0  0  0  0  0  0
    5.1502   -0.8410    0.7211 C   0  0  0  0  0  0  0  0  0  0  0  0
    6.0096   -0.0154    1.4189 C   0  0  0  0  0  0  0  0  0  0  0  0
    4.8858   -2.2222    0.9186 N   0  0  0  0  0  0  0  0  0  0  0  0
    3.9214   -2.6599   -0.0442 C   0  0  0  0  0  0  0  0  0  0  0  0
    3.4823   -3.8387   -0.1342 O   0  0  0  0  0  0  0  0  0  0  0  0
    3.5474   -1.4930   -0.8938 C   0  0  0  0  0  0  0  0  0  0  0  0
    2.0982   -1.1562   -0.7503 C   0  0  0  0  0  0  0  0  0  0  0  0
    1.2650   -2.0206   -1.2156 N   0  0  0  0  0  0  0  0  0  0  0  0
    1.5982   -3.3146   -1.6595 C   0  0  0  0  0  0  0  0  0  0  0  0
    1.7357   -4.3843   -0.7713 C   0  0  0  0  0  0  0  0  0  0  0  0
    2.0542   -5.6198   -1.2637 C   0  0  0  0  0  0  0  0  0  0  0  0
    2.2477   -5.8545   -2.6189 C   0  0  0  0  0  0  0  0  0  0  0  0
    2.5628   -7.1656   -3.1157 N   0  0  0  0  0  0  0  0  0  0  0  0
    1.5764   -7.7813   -3.9752 C   0  0  0  0  0  0  0  0  0  0  0  0
    3.7852   -7.7633   -2.7379 C   0  0  0  0  0  0  0  0  0  0  0  0
    4.0777   -8.8558   -3.3397 O   0  0  0  0  0  0  0  0  0  0  0  0
    4.7334   -7.2722   -1.7512 C   0  0  0  0  0  0  0  0  0  0  0  0
    5.9259   -7.9937   -1.5555 N   0  0  0  0  0  0  0  0  0  0  0  0
    6.6775   -7.7261   -0.3693 C   0  0  0  0  0  0  0  0  0  0  0  0
    7.2168   -9.0720    0.1217 C   0  0  0  0  0  0  0  0  0  0  0  0
    8.1484   -9.6238   -0.8604 N   0  0  0  0  0  0  0  0  0  0  0  0
    9.3215   -8.7804   -0.9900 C   0  0  0  0  0  0  0  0  0  0  0  0
    7.4902   -9.7018   -2.1550 C   0  0  0  0  0  0  0  0  0  0  0  0
    6.0205   -9.3172   -2.0411 C   0  0  0  0  0  0  0  0  0  0  0  0
    2.1009   -4.7667   -3.4503 C   0  0  0  0  0  0  0  0  0  0  0  0
    1.7807   -3.4933   -3.0211 C   0  0  0  0  0  0  0  0  0  0  0  0
    1.7034    0.0881   -0.1029 C   0  0  0  0  0  0  0  0  0  0  0  0
    0.5769    0.7741   -0.5166 C   0  0  0  0  0  0  0  0  0  0  0  0
    0.2215    1.9448    0.1003 C   0  0  0  0  0  0  0  0  0  0  0  0
    0.9676    2.4503    1.1261 C   0  0  0  0  0  0  0  0  0  0  0  0
    2.0803    1.7617    1.5261 C   0  0  0  0  0  0  0  0  0  0  0  0
    2.4679    0.5827    0.9297 C   0  0  0  0  0  0  0  0  0  0  0  0
  1  2  1  0
  2  3  1  0
  3  4  2  0
  3  5  1  0
  5  6  1  0
  6  7  2  0
  7  8  1  0
  8  9  2  0
  9 10  1  0
  9 11  1  0
 11 12  1  0
 12 13  2  0
 12 14  1  0
 14 15  1  0
 15 16  2  3
 16 17  1  0
 17 18  1  0
 18 19  2  0
 19 20  1  0
 20 21  1  0
 21 22  1  0
 21 23  1  0
 23 24  2  0
 23 25  1  0
 25 26  1  0
 26 27  1  0
 27 28  1  0
 28 29  1  0
 29 30  1  0
 29 31  1  0
 31 32  1  0
 20 33  2  0
 33 34  1  0
 15 35  1  0
 35 36  2  0
 36 37  1  0
 37 38  2  0
 38 39  1  0
 39 40  2  0
 10  5  2  0
 34 17  2  0
 40 35  1  0
 14  8  1  0
 32 26  1  0
M  END
>  <Smiles>  (1) 
COC(=O)c1ccc2c(c1)NC(=O)C2C(=Nc1ccc(N(C)C(=O)CN2CCN(C)CC2)cc1)c1ccccc1

>  <GEO>  (1) 
0.01 2.99 -1.18 0.17 2.55 1.45 2.01 -3.00 -3.10 -2.86

>  <target1>  (1) 
Q9UM73_WT

>  <target2>  (1) 
Q9UM73_L1196M

$$$$
