
     RDKit          3D

 30 34  0  0  0  0  0  0  0  0999 V2000
   -8.3237    2.9434    0.4602 C   0  0  0  0  0  0  0  0  0  0  0  0
   -7.1916    2.5175    1.3663 C   0  0  0  0  0  0  0  0  0  0  0  0
   -6.6205    1.2031    0.9167 C   0  0  0  0  0  0  0  0  0  0  0  0
   -7.1913    0.0687    1.4556 C   0  0  0  0  0  0  0  0  0  0  0  0
   -6.7142   -1.1724    1.0852 C   0  0  0  0  0  0  0  0  0  0  0  0
   -5.6763   -1.2940    0.1850 C   0  0  0  0  0  0  0  0  0  0  0  0
   -5.1368   -0.1357   -0.3276 C   0  0  0  0  0  0  0  0  0  0  0  0
   -4.0665   -0.2683   -1.2557 N   0  0  0  0  0  0  0  0  0  0  0  0
   -3.6157    0.8718   -2.0043 C   0  0  0  0  0  0  0  0  0  0  0  0
   -4.1858    1.9924   -1.9270 O   0  0  0  0  0  0  0  0  0  0  0  0
   -2.4819    0.6582   -2.8417 N   0  0  0  0  0  0  0  0  0  0  0  0
   -2.0119    1.7375   -3.6373 C   0  0  0  0  0  0  0  0  0  0  0  0
   -2.7895    2.8350   -3.8479 C   0  0  0  0  0  0  0  0  0  0  0  0
   -2.3855    3.9358   -4.6235 C   0  0  0  0  0  0  0  0  0  0  0  0
   -1.1340    3.9005   -5.2012 C   0  0  0  0  0  0  0  0  0  0  0  0
   -0.3859    2.7817   -4.9653 C   0  0  0  0  0  0  0  0  0  0  0  0
   -0.7633    1.7068   -4.2162 C   0  0  0  0  0  0  0  0  0  0  0  0
   -0.6447    5.0377   -6.0367 C   0  0  0  0  0  0  0  0  0  0  0  0
   -1.5786    6.0541   -6.1298 C   0  0  0  0  0  0  0  0  0  0  0  0
   -2.9316    6.1293   -5.5246 C   0  0  0  0  0  0  0  0  0  0  0  0
   -3.3556    5.0136   -4.7318 C   0  0  0  0  0  0  0  0  0  0  0  0
   -0.7682    7.3166   -7.1846 S   0  0  0  0  0  0  0  0  0  0  0  0
    0.7258    6.3673   -7.3941 C   0  0  0  0  0  0  0  0  0  0  0  0
    0.5185    5.1984   -6.6762 C   0  0  0  0  0  0  0  0  0  0  0  0
    1.6569    4.3538   -6.7716 C   0  0  0  0  0  0  0  0  0  0  0  0
    1.7698    3.1096   -6.1666 N   0  0  0  0  0  0  0  0  0  0  0  0
    2.7316    4.7631   -7.5006 N   0  0  0  0  0  0  0  0  0  0  0  0
    2.8267    5.9169   -8.1570 C   0  0  0  0  0  0  0  0  0  0  0  0
    1.7448    6.7418   -8.0781 N   0  0  0  0  0  0  0  0  0  0  0  0
   -5.5831    1.1272    0.0152 C   0  0  0  0  0  0  0  0  0  0  0  0
  1  2  1  0
  2  3  1  0
  3  4  1  0
  4  5  2  0
  5  6  1  0
  6  7  2  0
  7  8  1  0
  8  9  1  0
  9 10  2  0
  9 11  1  0
 11 12  1  0
 12 13  1  0
 13 14  2  0
 14 15  1  0
 15 16  2  0
 16 17  1  0
 15 18  1  0
 18 19  2  0
 19 20  1  0
 20 21  1  0
 19 22  1  0
 22 23  1  0
 23 24  1  0
 24 25  2  0
 25 26  1  0
 25 27  1  0
 27 28  2  0
 28 29  1  0
  7 30  1  0
 30  3  2  0
 17 12  2  0
 24 18  1  0
 21 14  1  0
 29 23  2  0
M  END
>  <Smiles>  (1) 
CCc1cccc(NC(=O)Nc2cc3c(cc2)-c2c(CC3)sc3c2c(N)ncn3)c1

>  <GEO>  (1) 
-1.57 2.95 -0.07 3.11 -0.27

>  <target1>  (1) 
Q9UM73_WT

>  <target2>  (1) 
Q9UM73_L1196M

$$$$
