
     RDKit          3D

 34 38  0  0  0  0  0  0  0  0999 V2000
   -5.9181    3.8494   -1.0433 C   0  0  0  0  0  0  0  0  0  0  0  0
   -5.4327    3.6805    0.3803 C   0  0  0  0  0  0  0  0  0  0  0  0
   -4.7507    2.3884    0.5523 N   0  0  0  0  0  0  0  0  0  0  0  0
   -5.7952    1.3852    0.2854 C   0  0  0  0  0  0  0  0  0  0  0  0
   -6.9721    1.5896    1.2453 C   0  0  0  0  0  0  0  0  0  0  0  0
   -4.4771    2.2587    1.9760 C   0  0  0  0  0  0  0  0  0  0  0  0
   -4.0277    0.8895    2.3206 C   0  0  0  0  0  0  0  0  0  0  0  0
   -3.0056    0.7922    3.2611 C   0  0  0  0  0  0  0  0  0  0  0  0
   -2.5405   -0.4566    3.6249 C   0  0  0  0  0  0  0  0  0  0  0  0
   -3.0412   -1.6301    3.0989 C   0  0  0  0  0  0  0  0  0  0  0  0
   -2.5183   -2.9270    3.5138 C   0  0  0  0  0  0  0  0  0  0  0  0
   -2.4146   -3.3628    4.8247 C   0  0  0  0  0  0  0  0  0  0  0  0
   -2.7848   -2.6638    6.0494 C   0  0  0  0  0  0  0  0  0  0  0  0
   -3.9208   -1.8857    6.1602 C   0  0  0  0  0  0  0  0  0  0  0  0
   -4.2155   -1.2438    7.3670 C   0  0  0  0  0  0  0  0  0  0  0  0
   -3.3591   -1.3927    8.4545 C   0  0  0  0  0  0  0  0  0  0  0  0
   -3.6197   -0.7338    9.7633 C   0  0  0  0  0  0  0  0  0  0  0  0
   -4.9128   -1.1486   10.2424 N   0  0  0  0  0  0  0  0  0  0  0  0
   -5.2974   -0.4844   11.4693 C   0  0  0  0  0  0  0  0  0  0  0  0
   -6.7756   -0.1834   11.3529 C   0  0  0  0  0  0  0  0  0  0  0  0
   -7.0614   -0.1723    9.8673 C   0  0  0  0  0  0  0  0  0  0  0  0
   -7.1270    1.2473    9.3253 C   0  0  0  0  0  0  0  0  0  0  0  0
   -5.9280   -0.9283    9.2611 C   0  0  0  0  0  0  0  0  0  0  0  0
   -2.2300   -2.1636    8.3511 C   0  0  0  0  0  0  0  0  0  0  0  0
   -1.9614   -2.7872    7.1482 C   0  0  0  0  0  0  0  0  0  0  0  0
   -1.8893   -4.5996    4.7877 N   0  0  0  0  0  0  0  0  0  0  0  0
   -1.6548   -4.9682    3.5134 C   0  0  0  0  0  0  0  0  0  0  0  0
   -1.1442   -6.0956    2.9702 N   0  0  0  0  0  0  0  0  0  0  0  0
   -1.0086   -6.2218    1.6407 C   0  0  0  0  0  0  0  0  0  0  0  0
   -1.4095   -5.1595    0.8548 C   0  0  0  0  0  0  0  0  0  0  0  0
   -1.9148   -4.0478    1.4196 N   0  0  0  0  0  0  0  0  0  0  0  0
   -2.0460   -3.9320    2.7488 N   0  0  0  0  0  0  0  0  0  0  0  0
   -4.0556   -1.5020    2.1671 C   0  0  0  0  0  0  0  0  0  0  0  0
   -4.5384   -0.2557    1.7868 C   0  0  0  0  0  0  0  0  0  0  0  0
  1  2  1  0
  2  3  1  0
  3  4  1  0
  4  5  1  0
  3  6  1  0
  6  7  1  0
  7  8  1  0
  8  9  2  0
  9 10  1  0
 10 11  1  0
 11 12  2  0
 12 13  1  0
 13 14  1  0
 14 15  2  0
 15 16  1  0
 16 17  1  0
 17 18  1  0
 18 19  1  0
 19 20  1  0
 20 21  1  0
 21 22  1  0
 21 23  1  0
 16 24  2  0
 24 25  1  0
 12 26  1  0
 26 27  2  0
 27 28  1  0
 28 29  2  0
 29 30  1  0
 30 31  2  0
 31 32  1  0
 10 33  2  0
 33 34  1  0
 34  7  2  0
 32 11  1  0
 25 13  2  0
 32 27  1  0
 23 18  1  0
M  END
>  <Smiles>  (1) 
CCN(CC)Cc1ccc(-c2c(-c3ccc(CN4CCC(C)C4)cc3)nc3nccnn23)cc1

>  <GEO>  (1) 
-1.10 -1.01 2.95 2.45 0.93 0.69 1.00 -3.07

>  <target1>  (1) 
Q9UM73_WT

>  <target2>  (1) 
Q9UM73_L1196M

$$$$
