
     RDKit          3D

 38 42  0  0  0  0  0  0  0  0999 V2000
   10.0031    2.5973   -1.1881 C   0  0  0  0  0  0  0  0  0  0  0  0
   10.2402    2.3132    0.2815 C   0  0  0  0  0  0  0  0  0  0  0  0
    9.6537    0.9869    0.5395 N   0  0  0  0  0  0  0  0  0  0  0  0
   10.1042    0.3187    1.7178 C   0  0  0  0  0  0  0  0  0  0  0  0
   11.0263    0.9044    2.3609 O   0  0  0  0  0  0  0  0  0  0  0  0
    9.5498   -0.9699    2.1846 C   0  0  0  0  0  0  0  0  0  0  0  0
    9.6163   -2.0109    1.1504 C   0  0  0  0  0  0  0  0  0  0  0  0
    8.9006   -3.2833    1.3664 C   0  0  0  0  0  0  0  0  0  0  0  0
    8.4785   -3.9231    0.0193 C   0  0  0  0  0  0  0  0  0  0  0  0
    9.7075   -3.8966   -0.7662 N   0  0  0  0  0  0  0  0  0  0  0  0
   10.3595   -5.1113   -1.1805 C   0  0  0  0  0  0  0  0  0  0  0  0
    9.8061   -6.2988   -1.0097 N   0  0  0  0  0  0  0  0  0  0  0  0
   10.4980   -7.4080   -1.4248 C   0  0  0  0  0  0  0  0  0  0  0  0
    9.8825   -8.6329   -1.2129 N   0  0  0  0  0  0  0  0  0  0  0  0
   10.4474   -9.8968   -1.1974 C   0  0  0  0  0  0  0  0  0  0  0  0
    9.6122  -10.9981   -1.1457 C   0  0  0  0  0  0  0  0  0  0  0  0
   10.1556  -12.2717   -1.1807 C   0  0  0  0  0  0  0  0  0  0  0  0
   11.5130  -12.5097   -1.2652 C   0  0  0  0  0  0  0  0  0  0  0  0
   12.0581  -13.8416   -1.2865 N   0  0  0  0  0  0  0  0  0  0  0  0
   13.4159  -14.0573   -1.7865 C   0  0  0  0  0  0  0  0  0  0  0  0
   14.0297  -15.1984   -1.0000 C   0  0  0  0  0  0  0  0  0  0  0  0
   13.3893  -15.4057    0.2588 N   0  0  0  0  0  0  0  0  0  0  0  0
   13.6974  -14.3886    1.2459 C   0  0  0  0  0  0  0  0  0  0  0  0
   12.0070  -15.7500    0.1712 C   0  0  0  0  0  0  0  0  0  0  0  0
   11.2201  -14.9155   -0.8027 C   0  0  0  0  0  0  0  0  0  0  0  0
   12.3283  -11.3995   -1.3150 C   0  0  0  0  0  0  0  0  0  0  0  0
   11.8306  -10.1235   -1.2839 C   0  0  0  0  0  0  0  0  0  0  0  0
   11.7480   -7.2210   -2.0024 C   0  0  0  0  0  0  0  0  0  0  0  0
   12.5002   -8.2967   -2.4198 C   0  0  0  0  0  0  0  0  0  0  0  0
   13.7374   -8.1295   -2.9692 C   0  0  0  0  0  0  0  0  0  0  0  0
   14.4957   -9.2184   -3.3879 O   0  0  0  0  0  0  0  0  0  0  0  0
   15.7912   -9.0098   -3.9453 C   0  0  0  0  0  0  0  0  0  0  0  0
   14.3240   -6.8848   -3.1486 C   0  0  0  0  0  0  0  0  0  0  0  0
   13.5682   -5.7787   -2.7284 C   0  0  0  0  0  0  0  0  0  0  0  0
   12.3135   -5.9747   -2.1725 C   0  0  0  0  0  0  0  0  0  0  0  0
   11.5899   -4.9235   -1.7479 N   0  0  0  0  0  0  0  0  0  0  0  0
   10.3194   -2.6135   -1.1721 C   0  0  0  0  0  0  0  0  0  0  0  0
    9.7268   -1.5637   -0.2678 C   0  0  0  0  0  0  0  0  0  0  0  0
  1  2  1  0
  2  3  1  0
  3  4  1  0
  4  5  2  0
  4  6  1  0
  6  7  1  0
  7  8  1  0
  8  9  1  0
  9 10  1  0
 10 11  1  0
 11 12  2  0
 12 13  1  0
 13 14  1  0
 14 15  1  0
 15 16  1  0
 16 17  2  0
 17 18  1  0
 18 19  1  0
 19 20  1  0
 20 21  1  0
 21 22  1  0
 22 23  1  0
 22 24  1  0
 24 25  1  0
 18 26  2  0
 26 27  1  0
 13 28  2  0
 28 29  1  0
 29 30  2  0
 30 31  1  0
 31 32  1  0
 30 33  1  0
 33 34  2  0
 34 35  1  0
 35 36  2  0
 10 37  1  0
 37 38  1  0
 38  7  1  0
 36 11  1  0
 27 15  2  0
 35 28  1  0
 25 19  1  0
M  END
>  <Smiles>  (1) 
CCNC(=O)CC1CCN(c2nc(Nc3ccc(N4CCN(C)CC4)cc3)c3cc(OC)ccc3n2)CC1

>  <GEO>  (1) 
2.81 -0.08 0.96 -2.96 0.14 -2.82 -2.99 2.81 -3.13

>  <target1>  (1) 
Q9UM73_WT

>  <target2>  (1) 
Q9UM73_L1196M

$$$$
