
     RDKit          3D

 27 29  0  0  0  0  0  0  0  0999 V2000
   -4.4815    1.2960   -2.1190 C   0  0  0  0  0  0  0  0  0  0  0  0
   -4.6949    1.1717   -0.6209 C   0  0  0  0  0  0  0  0  0  0  0  0
   -3.6062    2.0052    0.0437 C   0  0  0  0  0  0  0  0  0  0  0  0
   -6.0244    1.7426   -0.1953 C   0  0  0  0  0  0  0  0  0  0  0  0
   -4.6003   -0.2383   -0.1622 C   0  0  0  0  0  0  0  0  0  0  0  0
   -5.4227   -1.2836   -0.5660 C   0  0  0  0  0  0  0  0  0  0  0  0
   -6.4978   -1.1325   -1.5026 C   0  0  0  0  0  0  0  0  0  0  0  0
   -7.3209   -2.0487   -1.9395 C   0  0  0  0  0  0  0  0  0  0  0  0
   -7.1496   -3.3071   -1.4389 N   0  0  0  0  0  0  0  0  0  0  0  0
   -7.9714   -4.2881   -1.8565 C   0  0  0  0  0  0  0  0  0  0  0  0
   -7.8647   -5.4732   -1.4313 O   0  0  0  0  0  0  0  0  0  0  0  0
   -8.9773   -4.0570   -2.7723 C   0  0  0  0  0  0  0  0  0  0  0  0
   -9.8009   -5.0054   -3.2006 C   0  0  0  0  0  0  0  0  0  0  0  0
  -10.8298   -4.7872   -4.1829 C   0  0  0  0  0  0  0  0  0  0  0  0
  -10.4903   -4.4088   -5.4658 C   0  0  0  0  0  0  0  0  0  0  0  0
  -11.5145   -4.2119   -6.3708 C   0  0  0  0  0  0  0  0  0  0  0  0
  -11.2204   -3.8374   -7.6488 F   0  0  0  0  0  0  0  0  0  0  0  0
  -12.8531   -4.3824   -6.0278 C   0  0  0  0  0  0  0  0  0  0  0  0
  -13.1684   -4.7637   -4.7298 C   0  0  0  0  0  0  0  0  0  0  0  0
  -12.1580   -4.9638   -3.8156 C   0  0  0  0  0  0  0  0  0  0  0  0
  -12.4690   -5.3307   -2.5681 F   0  0  0  0  0  0  0  0  0  0  0  0
   -9.1330   -2.8104   -3.2564 N   0  0  0  0  0  0  0  0  0  0  0  0
   -8.3306   -1.7998   -2.8636 C   0  0  0  0  0  0  0  0  0  0  0  0
   -8.4632   -0.6308   -3.3062 O   0  0  0  0  0  0  0  0  0  0  0  0
   -5.0233   -2.3827    0.0629 N   0  0  0  0  0  0  0  0  0  0  0  0
   -3.9759   -2.0542    0.8472 C   0  0  0  0  0  0  0  0  0  0  0  0
   -3.7209   -0.7413    0.7061 N   0  0  0  0  0  0  0  0  0  0  0  0
  1  2  1  0
  2  3  1  0
  2  4  1  0
  2  5  1  0
  5  6  2  0
  6  7  1  0
  7  8  2  3
  8  9  1  0
  9 10  1  0
 10 11  2  0
 10 12  1  0
 12 13  2  3
 13 14  1  0
 14 15  1  0
 15 16  2  0
 16 17  1  0
 16 18  1  0
 18 19  2  0
 19 20  1  0
 20 21  1  0
 12 22  1  0
 22 23  1  0
 23 24  2  0
  6 25  1  0
 25 26  2  0
 26 27  1  0
 27  5  1  0
 23  8  1  0
 20 14  2  0
M  END
>  <Smiles>  (1) 
CC(C)(C)c1c(C=c2[nH]c(=O)c(=Cc3cc(F)ccc3F)[nH]c2=O)nc[nH]1

>  <GEO>  (1) 
-1.07 -3.14 0.01 -3.11 1.10

>  <target1>  (1) 
Q9UM73_WT

>  <target2>  (1) 
Q9UM73_L1196M

$$$$
