
     RDKit          3D

 35 39  0  0  0  0  0  0  0  0999 V2000
   -4.1684    2.5450    2.2528 O   0  0  0  0  0  0  0  0  0  0  0  0
   -3.6650    3.4463    1.5511 C   0  0  0  0  0  0  0  0  0  0  0  0
   -4.0209    4.7851    1.7106 O   0  0  0  0  0  0  0  0  0  0  0  0
   -2.6495    3.1595    0.4941 C   0  0  0  0  0  0  0  0  0  0  0  0
   -2.1240    1.8628    0.6242 O   0  0  0  0  0  0  0  0  0  0  0  0
   -1.4212    1.2204   -0.3854 C   0  0  0  0  0  0  0  0  0  0  0  0
   -1.6570   -0.1185   -0.6224 C   0  0  0  0  0  0  0  0  0  0  0  0
   -2.6201   -0.9016    0.1452 C   0  0  0  0  0  0  0  0  0  0  0  0
   -3.5338   -1.7121   -0.4895 C   0  0  0  0  0  0  0  0  0  0  0  0
   -4.4646   -2.4707    0.2128 C   0  0  0  0  0  0  0  0  0  0  0  0
   -5.3492   -3.2635   -0.5656 N   0  0  0  0  0  0  0  0  0  0  0  0
   -6.3753   -4.0816   -0.0723 C   0  0  0  0  0  0  0  0  0  0  0  0
   -6.9595   -5.0133   -0.9349 C   0  0  0  0  0  0  0  0  0  0  0  0
   -7.9788   -5.8453   -0.4926 C   0  0  0  0  0  0  0  0  0  0  0  0
   -8.4389   -5.7791    0.7915 C   0  0  0  0  0  0  0  0  0  0  0  0
   -9.4822   -6.6489    1.1996 N   0  0  0  0  0  0  0  0  0  0  0  0
   -9.7615   -6.9261    2.6145 C   0  0  0  0  0  0  0  0  0  0  0  0
   -9.7257   -8.4564    2.7085 C   0  0  0  0  0  0  0  0  0  0  0  0
  -10.7951   -8.9314    1.9724 O   0  0  0  0  0  0  0  0  0  0  0  0
  -10.7222   -8.7060    0.6201 C   0  0  0  0  0  0  0  0  0  0  0  0
  -10.3305   -7.3120    0.2298 C   0  0  0  0  0  0  0  0  0  0  0  0
   -7.8872   -4.8808    1.6515 C   0  0  0  0  0  0  0  0  0  0  0  0
   -6.8644   -4.0417    1.2179 C   0  0  0  0  0  0  0  0  0  0  0  0
   -4.4928   -2.4281    1.5574 N   0  0  0  0  0  0  0  0  0  0  0  0
   -3.6035   -1.6377    2.2060 C   0  0  0  0  0  0  0  0  0  0  0  0
   -2.6658   -0.8718    1.5315 C   0  0  0  0  0  0  0  0  0  0  0  0
   -0.9453   -0.7178   -1.6257 C   0  0  0  0  0  0  0  0  0  0  0  0
   -0.0304    0.0132   -2.3596 C   0  0  0  0  0  0  0  0  0  0  0  0
    0.6865   -0.6033   -3.3749 C   0  0  0  0  0  0  0  0  0  0  0  0
    1.6101    0.1474   -4.1111 C   0  0  0  0  0  0  0  0  0  0  0  0
    1.7919    1.4902   -3.8134 C   0  0  0  0  0  0  0  0  0  0  0  0
    3.0550    2.4617   -4.8405 Br  0  0  0  0  0  0  0  0  0  0  0  0
    1.0750    2.1118   -2.7961 C   0  0  0  0  0  0  0  0  0  0  0  0
    0.1560    1.3605   -2.0652 C   0  0  0  0  0  0  0  0  0  0  0  0
   -0.5411    1.9559   -1.0793 N   0  0  0  0  0  0  0  0  0  0  0  0
  1  2  2  0
  2  3  1  0
  2  4  1  0
  4  5  1  0
  5  6  1  0
  6  7  2  0
  7  8  1  0
  8  9  2  0
  9 10  1  0
 10 11  1  0
 11 12  1  0
 12 13  1  0
 13 14  2  0
 14 15  1  0
 15 16  1  0
 16 17  1  0
 17 18  1  0
 18 19  1  0
 19 20  1  0
 20 21  1  0
 15 22  2  0
 22 23  1  0
 10 24  2  0
 24 25  1  0
 25 26  2  0
  7 27  1  0
 27 28  2  0
 28 29  1  0
 29 30  2  0
 30 31  1  0
 31 32  1  0
 31 33  2  0
 33 34  1  0
 34 35  2  0
 35  6  1  0
 26  8  1  0
 34 28  1  0
 23 12  2  0
 21 16  1  0
M  END
>  <Smiles>  (1) 
O=C(O)COc1c(-c2cc(Nc3ccc(N4CCOCC4)cc3)ncc2)cc2ccc(Br)cc2n1

>  <GEO>  (1) 
-0.25 2.86 -2.42 2.31 -3.12 -2.90 2.82

>  <target1>  (1) 
Q9UM73_WT

>  <target2>  (1) 
Q9UM73_L1196M

$$$$
