resistance_project/docking/8faf60323ce63d5a/P00533_WT/docked/molecule_0008_out.pdbqt
 OpenBabel09142609543D

 61 64  0  0  0  0  0  0  0  0999 V2000
    0.2320   50.1000  -17.8920 C   0  0  0  0  0  0  0  0  0  0  0  0
    0.9380   51.0480  -17.1840 C   0  0  0  0  0  0  0  0  0  0  0  0
    1.3860   52.1860  -17.8130 C   0  0  0  0  0  0  0  0  0  0  0  0
    1.1440   52.3930  -19.1380 C   0  0  0  0  0  0  0  0  0  0  0  0
    1.6090   53.5230  -19.6930 N   0  0  0  0  0  0  0  0  0  0  0  0
    2.1290   54.2070  -19.1440 H   0  0  0  0  0  0  0  0  0  0  0  0
    1.3660   53.7190  -21.0000 C   0  0  0  0  0  0  0  0  0  0  0  0
    0.6880   52.8480  -21.7630 N   0  0  0  0  0  0  0  0  0  0  0  0
    0.5250   53.0370  -22.7530 H   0  0  0  0  0  0  0  0  0  0  0  0
    0.2300   51.7240  -21.1930 C   0  0  0  0  0  0  0  0  0  0  0  0
    0.4340   51.4360  -19.8510 C   0  0  0  0  0  0  0  0  0  0  0  0
   -0.0340   50.2830  -19.2550 C   0  0  0  0  0  0  0  0  0  0  0  0
    1.2340   50.9170  -15.8230 O   0  0  0  0  0  0  0  0  0  0  0  0
    0.6170   51.7460  -14.8490 C   0  0  0  0  0  0  0  0  0  0  0  0
   -0.1600   50.8870  -13.8940 C   0  0  0  0  0  0  0  0  0  0  0  0
   -1.5200   51.5040  -13.6770 C   0  0  0  0  0  0  0  0  0  0  0  0
   -1.9140   51.5630  -12.2940 N   0  0  0  0  0  0  0  0  0  0  0  0
   -1.5020   52.7920  -11.6510 C   0  0  0  0  0  0  0  0  0  0  0  0
   -2.5550   53.2240  -10.6230 C   0  0  0  0  0  0  0  0  0  0  0  0
   -3.7750   53.4940  -11.2150 O   0  0  0  0  0  0  0  0  0  0  0  0
   -4.0080   52.7160  -12.3560 C   0  0  0  0  0  0  0  0  0  0  0  0
   -3.3210   51.3960  -12.1270 C   0  0  0  0  0  0  0  0  0  0  0  0
   -0.2130   48.9390  -17.1950 N   0  0  0  0  0  0  0  0  0  0  0  0
   -1.4850   48.8010  -16.5880 C   0  0  0  0  0  0  0  0  0  0  0  0
   -2.3070   49.7520  -16.6640 O   0  0  0  0  0  0  0  0  0  0  0  0
    0.4310   48.1510  -17.1280 H   0  0  0  0  0  0  0  0  0  0  0  0
   -1.7890   47.5540  -15.8950 C   0  0  0  0  0  0  0  0  0  0  0  0
   -1.9470   47.5300  -14.5820 C   0  0  0  0  0  0  0  0  0  0  0  0
   -0.4870   50.8030  -22.0090 N   0  0  0  0  0  0  0  0  0  0  0  0
   -0.0630   49.9170  -22.2830 H   0  0  0  0  0  0  0  0  0  0  0  0
   -1.8100   51.1360  -22.4430 C   0  0  0  0  0  0  0  0  0  0  0  0
   -1.9550   51.4100  -23.8000 C   0  0  0  0  0  0  0  0  0  0  0  0
   -3.2120   51.7370  -24.2780 C   0  0  0  0  0  0  0  0  0  0  0  0
   -3.4810   52.0990  -25.9880 Cl  0  0  0  0  0  0  0  0  0  0  0  0
   -4.2880   51.7850  -23.3990 C   0  0  0  0  0  0  0  0  0  0  0  0
   -5.5010   52.1090  -23.9050 F   0  0  0  0  0  0  0  0  0  0  0  0
   -4.1070   51.5110  -22.0720 C   0  0  0  0  0  0  0  0  0  0  0  0
   -2.8560   51.1800  -21.5730 C   0  0  0  0  0  0  0  0  0  0  0  0
    1.9121   52.8921  -17.2748 H   0  0  0  0  0  0  0  0  0  0  0  0
    0.8301   54.6430  -21.0632 H   0  0  0  0  0  0  0  0  0  0  0  0
    0.3968   49.4552  -19.7785 H   0  0  0  0  0  0  0  0  0  0  0  0
   -0.0449   52.4343  -15.3317 H   0  0  0  0  0  0  0  0  0  0  0  0
    1.3655   52.2929  -14.3147 H   0  0  0  0  0  0  0  0  0  0  0  0
    0.3600   50.8265  -12.9608 H   0  0  0  0  0  0  0  0  0  0  0  0
   -0.2690   49.9024  -14.2985 H   0  0  0  0  0  0  0  0  0  0  0  0
   -2.2435   50.9232  -14.2100 H   0  0  0  0  0  0  0  0  0  0  0  0
   -1.4660   52.5125  -14.0303 H   0  0  0  0  0  0  0  0  0  0  0  0
   -1.3920   53.5587  -12.3893 H   0  0  0  0  0  0  0  0  0  0  0  0
   -0.5689   52.6321  -11.1524 H   0  0  0  0  0  0  0  0  0  0  0  0
   -2.2100   54.1057  -10.1245 H   0  0  0  0  0  0  0  0  0  0  0  0
   -2.6933   52.4186   -9.9323 H   0  0  0  0  0  0  0  0  0  0  0  0
   -5.0587   52.5662  -12.4920 H   0  0  0  0  0  0  0  0  0  0  0  0
   -3.6323   53.1983  -13.2341 H   0  0  0  0  0  0  0  0  0  0  0  0
   -3.6822   50.6776  -12.8329 H   0  0  0  0  0  0  0  0  0  0  0  0
   -3.5264   51.0517  -11.1349 H   0  0  0  0  0  0  0  0  0  0  0  0
   -1.8819   46.6799  -16.4357 H   0  0  0  0  0  0  0  0  0  0  0  0
   -1.8554   48.4005  -14.0353 H   0  0  0  0  0  0  0  0  0  0  0  0
   -2.1618   46.6408  -14.1043 H   0  0  0  0  0  0  0  0  0  0  0  0
   -1.1430   51.3702  -24.4357 H   0  0  0  0  0  0  0  0  0  0  0  0
   -4.9147   51.5511  -21.4308 H   0  0  0  0  0  0  0  0  0  0  0  0
   -2.7220   50.9730  -20.5709 H   0  0  0  0  0  0  0  0  0  0  0  0
  1 23  1  0  0  0  0
  1  2  2  0  0  0  0
  2 13  1  0  0  0  0
  3  2  1  0  0  0  0
  3 39  1  0  0  0  0
  4  3  2  0  0  0  0
  5  6  1  0  0  0  0
  5  4  1  0  0  0  0
  7  5  1  0  0  0  0
  7 40  1  0  0  0  0
  8 10  1  0  0  0  0
  8  7  1  0  0  0  0
  9  8  1  0  0  0  0
 10 11  2  0  0  0  0
 11 12  1  0  0  0  0
 11  4  1  0  0  0  0
 12  1  1  0  0  0  0
 12 41  1  0  0  0  0
 13 14  1  0  0  0  0
 14 15  1  0  0  0  0
 14 42  1  0  0  0  0
 14 43  1  0  0  0  0
 15 16  1  0  0  0  0
 15 44  1  0  0  0  0
 15 45  1  0  0  0  0
 16 17  1  0  0  0  0
 16 46  1  0  0  0  0
 16 47  1  0  0  0  0
 17 22  1  0  0  0  0
 17 18  1  0  0  0  0
 18 19  1  0  0  0  0
 18 48  1  0  0  0  0
 18 49  1  0  0  0  0
 19 50  1  0  0  0  0
 19 51  1  0  0  0  0
 20 19  1  0  0  0  0
 21 22  1  0  0  0  0
 21 20  1  0  0  0  0
 21 52  1  0  0  0  0
 21 53  1  0  0  0  0
 22 54  1  0  0  0  0
 22 55  1  0  0  0  0
 23 26  1  0  0  0  0
 23 24  1  0  0  0  0
 24 27  1  0  0  0  0
 25 24  2  0  0  0  0
 27 28  2  0  0  0  0
 27 56  1  0  0  0  0
 28 57  1  0  0  0  0
 28 58  1  0  0  0  0
 29 10  1  0  0  0  0
 30 29  1  0  0  0  0
 31 29  1  0  0  0  0
 31 38  2  0  0  0  0
 32 31  1  0  0  0  0
 32 59  1  0  0  0  0
 33 32  2  0  0  0  0
 33 35  1  0  0  0  0
 34 33  1  0  0  0  0
 35 37  2  0  0  0  0
 36 35  1  0  0  0  0
 37 38  1  0  0  0  0
 37 60  1  0  0  0  0
 38 61  1  0  0  0  0
M  END
>  <MODEL>
1

>  <REMARK>
 VINA RESULT:      -7.7      0.000      0.000
  9 active torsions:
  status: ('A' for Active; 'I' for Inactive)
    1  A    between atoms: C_2  and  C_3 
       I    between atoms: C_3  and  N_5 
    2  A    between atoms: N_5  and  C_7 
    3  A    between atoms: C_8  and  O_9 
    4  A    between atoms: O_9  and  C_10 
    5  A    between atoms: C_10  and  C_11 
    6  A    between atoms: C_11  and  C_12 
    7  A    between atoms: C_12  and  N_13 
    8  A    between atoms: C_26  and  N_27 
    9  A    between atoms: N_27  and  C_29 

>  <TORSDO>
F 9

$$$$
resistance_project/docking/8faf60323ce63d5a/P00533_WT/docked/molecule_0008_out.pdbqt
 OpenBabel09142609543D

 61 64  0  0  0  0  0  0  0  0999 V2000
   -0.3550   50.4250  -19.4730 C   0  0  0  0  0  0  0  0  0  0  0  0
    0.3780   51.0060  -18.4600 C   0  0  0  0  0  0  0  0  0  0  0  0
    1.1410   52.1210  -18.7140 C   0  0  0  0  0  0  0  0  0  0  0  0
    1.1870   52.6670  -19.9620 C   0  0  0  0  0  0  0  0  0  0  0  0
    1.9520   53.7550  -20.1440 N   0  0  0  0  0  0  0  0  0  0  0  0
    2.4830   54.1630  -19.3750 H   0  0  0  0  0  0  0  0  0  0  0  0
    1.9920   54.2860  -21.3770 C   0  0  0  0  0  0  0  0  0  0  0  0
    1.3100   53.7860  -22.4190 N   0  0  0  0  0  0  0  0  0  0  0  0
    1.3690   54.2210  -23.3400 H   0  0  0  0  0  0  0  0  0  0  0  0
    0.5510   52.6980  -22.2200 C   0  0  0  0  0  0  0  0  0  0  0  0
    0.4500   52.0810  -20.9810 C   0  0  0  0  0  0  0  0  0  0  0  0
   -0.3290   50.9620  -20.7660 C   0  0  0  0  0  0  0  0  0  0  0  0
    0.3910   50.5120  -17.1510 O   0  0  0  0  0  0  0  0  0  0  0  0
    1.2300   51.0770  -16.1560 C   0  0  0  0  0  0  0  0  0  0  0  0
    0.9020   50.4600  -14.8270 C   0  0  0  0  0  0  0  0  0  0  0  0
   -0.3090   49.5730  -14.9860 C   0  0  0  0  0  0  0  0  0  0  0  0
   -1.3500   49.8410  -14.0290 N   0  0  0  0  0  0  0  0  0  0  0  0
   -1.3260   51.2060  -13.5500 C   0  0  0  0  0  0  0  0  0  0  0  0
   -2.7570   51.6980  -13.2980 C   0  0  0  0  0  0  0  0  0  0  0  0
   -3.5100   51.7160  -14.4590 O   0  0  0  0  0  0  0  0  0  0  0  0
   -3.1280   50.7200  -15.3670 C   0  0  0  0  0  0  0  0  0  0  0  0
   -2.6470   49.5500  -14.5490 C   0  0  0  0  0  0  0  0  0  0  0  0
   -1.1310   49.2720  -19.1600 N   0  0  0  0  0  0  0  0  0  0  0  0
   -2.5140   49.2890  -18.8540 C   0  0  0  0  0  0  0  0  0  0  0  0
   -3.1300   50.3870  -18.8640 O   0  0  0  0  0  0  0  0  0  0  0  0
   -0.6570   48.3690  -19.1560 H   0  0  0  0  0  0  0  0  0  0  0  0
   -3.1680   48.0250  -18.5380 C   0  0  0  0  0  0  0  0  0  0  0  0
   -3.8740   47.3800  -19.4540 C   0  0  0  0  0  0  0  0  0  0  0  0
   -0.1670   52.1700  -23.3310 N   0  0  0  0  0  0  0  0  0  0  0  0
   -1.0890   51.7560  -23.2000 H   0  0  0  0  0  0  0  0  0  0  0  0
    0.4230   52.2270  -24.6340 C   0  0  0  0  0  0  0  0  0  0  0  0
   -0.1900   53.0870  -25.5420 C   0  0  0  0  0  0  0  0  0  0  0  0
    0.3370   53.1850  -26.8180 C   0  0  0  0  0  0  0  0  0  0  0  0
   -0.3830   54.2530  -28.0310 Cl  0  0  0  0  0  0  0  0  0  0  0  0
    1.4530   52.4310  -27.1590 C   0  0  0  0  0  0  0  0  0  0  0  0
    1.9380   52.5540  -28.4170 F   0  0  0  0  0  0  0  0  0  0  0  0
    2.0270   51.5960  -26.2400 C   0  0  0  0  0  0  0  0  0  0  0  0
    1.5160   51.4830  -24.9570 C   0  0  0  0  0  0  0  0  0  0  0  0
    1.6860   52.5501  -17.9499 H   0  0  0  0  0  0  0  0  0  0  0  0
    1.6633   55.2987  -21.2706 H   0  0  0  0  0  0  0  0  0  0  0  0
    0.0248   50.1954  -21.4232 H   0  0  0  0  0  0  0  0  0  0  0  0
    1.0690   52.1338  -16.1097 H   0  0  0  0  0  0  0  0  0  0  0  0
    2.2546   50.8865  -16.3984 H   0  0  0  0  0  0  0  0  0  0  0  0
    0.6919   51.2307  -14.1151 H   0  0  0  0  0  0  0  0  0  0  0  0
    1.7327   49.8812  -14.4808 H   0  0  0  0  0  0  0  0  0  0  0  0
    0.0003   48.5550  -14.8729 H   0  0  0  0  0  0  0  0  0  0  0  0
   -0.7164   49.7696  -15.9557 H   0  0  0  0  0  0  0  0  0  0  0  0
   -0.8603   51.8308  -14.2832 H   0  0  0  0  0  0  0  0  0  0  0  0
   -0.7736   51.2477  -12.6346 H   0  0  0  0  0  0  0  0  0  0  0  0
   -3.2271   51.0465  -12.5912 H   0  0  0  0  0  0  0  0  0  0  0  0
   -2.7018   52.6989  -12.9238 H   0  0  0  0  0  0  0  0  0  0  0  0
   -3.9634   50.4302  -15.9695 H   0  0  0  0  0  0  0  0  0  0  0  0
   -2.3602   51.0720  -16.0239 H   0  0  0  0  0  0  0  0  0  0  0  0
   -2.5972   48.6779  -15.1670 H   0  0  0  0  0  0  0  0  0  0  0  0
   -3.3262   49.3732  -13.7413 H   0  0  0  0  0  0  0  0  0  0  0  0
   -3.0797   47.6283  -17.5894 H   0  0  0  0  0  0  0  0  0  0  0  0
   -3.9662   47.7713  -20.4045 H   0  0  0  0  0  0  0  0  0  0  0  0
   -4.3320   46.4860  -19.2174 H   0  0  0  0  0  0  0  0  0  0  0  0
   -1.0185   53.6387  -25.2695 H   0  0  0  0  0  0  0  0  0  0  0  0
    2.8549   51.0407  -26.5068 H   0  0  0  0  0  0  0  0  0  0  0  0
    1.9518   50.8526  -24.2659 H   0  0  0  0  0  0  0  0  0  0  0  0
  1 23  1  0  0  0  0
  1  2  2  0  0  0  0
  2 13  1  0  0  0  0
  3  2  1  0  0  0  0
  3 39  1  0  0  0  0
  4  3  2  0  0  0  0
  5  4  1  0  0  0  0
  5  6  1  0  0  0  0
  7  5  1  0  0  0  0
  7 40  1  0  0  0  0
  8 10  1  0  0  0  0
  8  7  1  0  0  0  0
  9  8  1  0  0  0  0
 10 11  2  0  0  0  0
 11 12  1  0  0  0  0
 11  4  1  0  0  0  0
 12  1  1  0  0  0  0
 12 41  1  0  0  0  0
 13 14  1  0  0  0  0
 14 15  1  0  0  0  0
 14 42  1  0  0  0  0
 14 43  1  0  0  0  0
 15 44  1  0  0  0  0
 15 45  1  0  0  0  0
 16 15  1  0  0  0  0
 16 17  1  0  0  0  0
 16 46  1  0  0  0  0
 16 47  1  0  0  0  0
 17 18  1  0  0  0  0
 18 19  1  0  0  0  0
 18 48  1  0  0  0  0
 18 49  1  0  0  0  0
 19 50  1  0  0  0  0
 19 51  1  0  0  0  0
 20 19  1  0  0  0  0
 21 22  1  0  0  0  0
 21 20  1  0  0  0  0
 21 52  1  0  0  0  0
 21 53  1  0  0  0  0
 22 17  1  0  0  0  0
 22 54  1  0  0  0  0
 22 55  1  0  0  0  0
 23 26  1  0  0  0  0
 23 24  1  0  0  0  0
 24 27  1  0  0  0  0
 25 24  2  0  0  0  0
 27 56  1  0  0  0  0
 28 27  2  0  0  0  0
 28 57  1  0  0  0  0
 28 58  1  0  0  0  0
 29 30  1  0  0  0  0
 29 10  1  0  0  0  0
 31 29  1  0  0  0  0
 32 31  2  0  0  0  0
 32 59  1  0  0  0  0
 33 32  1  0  0  0  0
 34 33  1  0  0  0  0
 35 33  2  0  0  0  0
 35 37  1  0  0  0  0
 36 35  1  0  0  0  0
 37 38  2  0  0  0  0
 37 60  1  0  0  0  0
 38 31  1  0  0  0  0
 38 61  1  0  0  0  0
M  END
>  <REMARK>
 VINA RESULT:      -7.5      2.855      3.496
  9 active torsions:
  status: ('A' for Active; 'I' for Inactive)
    1  A    between atoms: C_2  and  C_3 
       I    between atoms: C_3  and  N_5 
    2  A    between atoms: N_5  and  C_7 
    3  A    between atoms: C_8  and  O_9 
    4  A    between atoms: O_9  and  C_10 
    5  A    between atoms: C_10  and  C_11 
    6  A    between atoms: C_11  and  C_12 
    7  A    between atoms: C_12  and  N_13 
    8  A    between atoms: C_26  and  N_27 
    9  A    between atoms: N_27  and  C_29 

>  <TORSDO>
F 9

$$$$
resistance_project/docking/8faf60323ce63d5a/P00533_WT/docked/molecule_0008_out.pdbqt
 OpenBabel09142609543D

 61 64  0  0  0  0  0  0  0  0999 V2000
   -0.5010   49.0870  -17.9360 C   0  0  0  0  0  0  0  0  0  0  0  0
   -0.5790   48.8460  -19.2910 C   0  0  0  0  0  0  0  0  0  0  0  0
   -0.0450   49.7450  -20.1830 C   0  0  0  0  0  0  0  0  0  0  0  0
    0.5650   50.8830  -19.7480 C   0  0  0  0  0  0  0  0  0  0  0  0
    1.0650   51.7210  -20.6700 N   0  0  0  0  0  0  0  0  0  0  0  0
    0.9920   51.5160  -21.6660 H   0  0  0  0  0  0  0  0  0  0  0  0
    1.6640   52.8400  -20.2320 C   0  0  0  0  0  0  0  0  0  0  0  0
    1.7850   53.1530  -18.9320 N   0  0  0  0  0  0  0  0  0  0  0  0
    2.2480   54.0150  -18.6430 H   0  0  0  0  0  0  0  0  0  0  0  0
    1.2790   52.3050  -18.0240 C   0  0  0  0  0  0  0  0  0  0  0  0
    0.6430   51.1260  -18.3830 C   0  0  0  0  0  0  0  0  0  0  0  0
    0.1210   50.2470  -17.4560 C   0  0  0  0  0  0  0  0  0  0  0  0
   -1.1880   47.7050  -19.8260 O   0  0  0  0  0  0  0  0  0  0  0  0
   -1.3750   47.5550  -21.2250 C   0  0  0  0  0  0  0  0  0  0  0  0
   -2.8340   47.7080  -21.5450 C   0  0  0  0  0  0  0  0  0  0  0  0
   -2.9750   48.5350  -22.8000 C   0  0  0  0  0  0  0  0  0  0  0  0
   -2.5430   49.8990  -22.6420 N   0  0  0  0  0  0  0  0  0  0  0  0
   -2.4620   50.6050  -23.9030 C   0  0  0  0  0  0  0  0  0  0  0  0
   -2.8600   52.0740  -23.7080 C   0  0  0  0  0  0  0  0  0  0  0  0
   -4.1700   52.2020  -23.2830 O   0  0  0  0  0  0  0  0  0  0  0  0
   -4.5940   51.1220  -22.4990 C   0  0  0  0  0  0  0  0  0  0  0  0
   -3.3840   50.6300  -21.7500 C   0  0  0  0  0  0  0  0  0  0  0  0
   -1.0680   48.1240  -17.0520 N   0  0  0  0  0  0  0  0  0  0  0  0
   -2.3820   48.1860  -16.5280 C   0  0  0  0  0  0  0  0  0  0  0  0
   -3.1300   49.1430  -16.8600 O   0  0  0  0  0  0  0  0  0  0  0  0
   -0.4850   47.3340  -16.7760 H   0  0  0  0  0  0  0  0  0  0  0  0
   -2.8150   47.1300  -15.6190 C   0  0  0  0  0  0  0  0  0  0  0  0
   -2.2280   45.9450  -15.6300 C   0  0  0  0  0  0  0  0  0  0  0  0
    1.4080   52.6450  -16.6470 N   0  0  0  0  0  0  0  0  0  0  0  0
    0.6300   53.0740  -16.1460 H   0  0  0  0  0  0  0  0  0  0  0  0
    2.6420   52.3770  -15.9730 C   0  0  0  0  0  0  0  0  0  0  0  0
    2.5520   51.5960  -14.8250 C   0  0  0  0  0  0  0  0  0  0  0  0
    3.7130   51.3030  -14.1310 C   0  0  0  0  0  0  0  0  0  0  0  0
    3.6840   50.3180  -12.6620 Cl  0  0  0  0  0  0  0  0  0  0  0  0
    4.9290   51.7910  -14.5940 C   0  0  0  0  0  0  0  0  0  0  0  0
    6.0420   51.4820  -13.8880 F   0  0  0  0  0  0  0  0  0  0  0  0
    4.9790   52.5560  -15.7260 C   0  0  0  0  0  0  0  0  0  0  0  0
    3.8270   52.8610  -16.4360 C   0  0  0  0  0  0  0  0  0  0  0  0
   -0.1069   49.5556  -21.1956 H   0  0  0  0  0  0  0  0  0  0  0  0
    1.1311   53.6523  -20.6805 H   0  0  0  0  0  0  0  0  0  0  0  0
   -0.6040   50.7833  -16.8801 H   0  0  0  0  0  0  0  0  0  0  0  0
   -0.8140   48.3040  -21.7438 H   0  0  0  0  0  0  0  0  0  0  0  0
   -1.0383   46.5868  -21.5319 H   0  0  0  0  0  0  0  0  0  0  0  0
   -3.2710   46.7436  -21.6993 H   0  0  0  0  0  0  0  0  0  0  0  0
   -3.3344   48.1930  -20.7330 H   0  0  0  0  0  0  0  0  0  0  0  0
   -2.3887   48.0816  -23.5717 H   0  0  0  0  0  0  0  0  0  0  0  0
   -4.0166   48.5616  -23.0433 H   0  0  0  0  0  0  0  0  0  0  0  0
   -1.4592   50.5556  -24.2731 H   0  0  0  0  0  0  0  0  0  0  0  0
   -3.1301   50.1500  -24.6040 H   0  0  0  0  0  0  0  0  0  0  0  0
   -2.7465   52.5895  -24.6387 H   0  0  0  0  0  0  0  0  0  0  0  0
   -2.2250   52.4922  -22.9551 H   0  0  0  0  0  0  0  0  0  0  0  0
   -4.9834   50.3443  -23.1222 H   0  0  0  0  0  0  0  0  0  0  0  0
   -5.3705   51.4173  -21.8246 H   0  0  0  0  0  0  0  0  0  0  0  0
   -2.8448   51.4650  -21.3538 H   0  0  0  0  0  0  0  0  0  0  0  0
   -3.6932   49.9945  -20.9467 H   0  0  0  0  0  0  0  0  0  0  0  0
   -3.5884   47.3099  -14.9598 H   0  0  0  0  0  0  0  0  0  0  0  0
   -1.4541   45.7586  -16.2867 H   0  0  0  0  0  0  0  0  0  0  0  0
   -2.5439   45.2067  -14.9818 H   0  0  0  0  0  0  0  0  0  0  0  0
    1.6391   51.2428  -14.4980 H   0  0  0  0  0  0  0  0  0  0  0  0
    5.8889   52.9125  -16.0578 H   0  0  0  0  0  0  0  0  0  0  0  0
    3.8672   53.4382  -17.2906 H   0  0  0  0  0  0  0  0  0  0  0  0
  1 12  1  0  0  0  0
  1 23  1  0  0  0  0
  2  1  2  0  0  0  0
  3  4  2  0  0  0  0
  3  2  1  0  0  0  0
  3 39  1  0  0  0  0
  4 11  1  0  0  0  0
  5  7  1  0  0  0  0
  5  4  1  0  0  0  0
  6  5  1  0  0  0  0
  7  8  1  0  0  0  0
  7 40  1  0  0  0  0
  8  9  1  0  0  0  0
  8 10  1  0  0  0  0
 10 29  1  0  0  0  0
 11 10  2  0  0  0  0
 11 12  1  0  0  0  0
 12 41  1  0  0  0  0
 13  2  1  0  0  0  0
 14 13  1  0  0  0  0
 14 42  1  0  0  0  0
 14 43  1  0  0  0  0
 15 14  1  0  0  0  0
 15 44  1  0  0  0  0
 15 45  1  0  0  0  0
 16 17  1  0  0  0  0
 16 15  1  0  0  0  0
 16 46  1  0  0  0  0
 16 47  1  0  0  0  0
 17 22  1  0  0  0  0
 18 19  1  0  0  0  0
 18 17  1  0  0  0  0
 18 48  1  0  0  0  0
 18 49  1  0  0  0  0
 19 20  1  0  0  0  0
 19 50  1  0  0  0  0
 19 51  1  0  0  0  0
 20 21  1  0  0  0  0
 21 22  1  0  0  0  0
 21 52  1  0  0  0  0
 21 53  1  0  0  0  0
 22 54  1  0  0  0  0
 22 55  1  0  0  0  0
 23 26  1  0  0  0  0
 23 24  1  0  0  0  0
 24 27  1  0  0  0  0
 25 24  2  0  0  0  0
 27 56  1  0  0  0  0
 28 27  2  0  0  0  0
 28 57  1  0  0  0  0
 28 58  1  0  0  0  0
 29 30  1  0  0  0  0
 29 31  1  0  0  0  0
 31 32  1  0  0  0  0
 32 33  2  0  0  0  0
 32 59  1  0  0  0  0
 33 34  1  0  0  0  0
 35 33  1  0  0  0  0
 35 36  1  0  0  0  0
 37 35  2  0  0  0  0
 37 60  1  0  0  0  0
 38 31  2  0  0  0  0
 38 37  1  0  0  0  0
 38 61  1  0  0  0  0
M  END
>  <REMARK>
 VINA RESULT:      -7.5      4.784      8.220
  9 active torsions:
  status: ('A' for Active; 'I' for Inactive)
    1  A    between atoms: C_2  and  C_3 
       I    between atoms: C_3  and  N_5 
    2  A    between atoms: N_5  and  C_7 
    3  A    between atoms: C_8  and  O_9 
    4  A    between atoms: O_9  and  C_10 
    5  A    between atoms: C_10  and  C_11 
    6  A    between atoms: C_11  and  C_12 
    7  A    between atoms: C_12  and  N_13 
    8  A    between atoms: C_26  and  N_27 
    9  A    between atoms: N_27  and  C_29 

>  <TORSDO>
F 9

$$$$
resistance_project/docking/8faf60323ce63d5a/P00533_WT/docked/molecule_0008_out.pdbqt
 OpenBabel09142609543D

 61 64  0  0  0  0  0  0  0  0999 V2000
   -0.0480   50.6950  -19.8540 C   0  0  0  0  0  0  0  0  0  0  0  0
    0.5400   51.9170  -20.1020 C   0  0  0  0  0  0  0  0  0  0  0  0
    1.2530   52.5510  -19.1120 C   0  0  0  0  0  0  0  0  0  0  0  0
    1.3890   51.9900  -17.8780 C   0  0  0  0  0  0  0  0  0  0  0  0
    2.0960   52.6610  -16.9560 N   0  0  0  0  0  0  0  0  0  0  0  0
    2.5210   53.5630  -17.1680 H   0  0  0  0  0  0  0  0  0  0  0  0
    2.2240   52.1000  -15.7420 C   0  0  0  0  0  0  0  0  0  0  0  0
    1.6840   50.9150  -15.4150 N   0  0  0  0  0  0  0  0  0  0  0  0
    1.8060   50.5250  -14.4800 H   0  0  0  0  0  0  0  0  0  0  0  0
    0.9790   50.2580  -16.3490 C   0  0  0  0  0  0  0  0  0  0  0  0
    0.7940   50.7600  -17.6290 C   0  0  0  0  0  0  0  0  0  0  0  0
    0.0720   50.0910  -18.5960 C   0  0  0  0  0  0  0  0  0  0  0  0
    0.4520   52.5670  -21.3370 O   0  0  0  0  0  0  0  0  0  0  0  0
    1.2550   53.6980  -21.6370 C   0  0  0  0  0  0  0  0  0  0  0  0
    1.2200   53.9480  -23.1170 C   0  0  0  0  0  0  0  0  0  0  0  0
    0.8760   52.6590  -23.8220 C   0  0  0  0  0  0  0  0  0  0  0  0
    0.0650   52.8420  -24.9970 N   0  0  0  0  0  0  0  0  0  0  0  0
    0.2810   54.1270  -25.6260 C   0  0  0  0  0  0  0  0  0  0  0  0
    0.1610   53.9910  -27.1490 C   0  0  0  0  0  0  0  0  0  0  0  0
    1.1230   53.1450  -27.6710 O   0  0  0  0  0  0  0  0  0  0  0  0
    1.4930   52.1300  -26.7790 C   0  0  0  0  0  0  0  0  0  0  0  0
    0.2710   51.8080  -25.9590 C   0  0  0  0  0  0  0  0  0  0  0  0
   -0.7750   50.0770  -20.9120 N   0  0  0  0  0  0  0  0  0  0  0  0
   -2.1600   50.2550  -21.1510 C   0  0  0  0  0  0  0  0  0  0  0  0
   -2.8190   51.0180  -20.3960 O   0  0  0  0  0  0  0  0  0  0  0  0
   -0.2620   49.4620  -21.5430 H   0  0  0  0  0  0  0  0  0  0  0  0
   -2.7670   49.5400  -22.2680 C   0  0  0  0  0  0  0  0  0  0  0  0
   -2.4400   48.2840  -22.5260 C   0  0  0  0  0  0  0  0  0  0  0  0
    0.4070   49.0030  -15.9950 N   0  0  0  0  0  0  0  0  0  0  0  0
    0.8250   48.1330  -16.3240 H   0  0  0  0  0  0  0  0  0  0  0  0
   -0.7640   48.9770  -15.1700 C   0  0  0  0  0  0  0  0  0  0  0  0
   -1.4450   50.1840  -15.0440 C   0  0  0  0  0  0  0  0  0  0  0  0
   -2.5850   50.2200  -14.2590 C   0  0  0  0  0  0  0  0  0  0  0  0
   -3.5080   51.7140  -14.0460 Cl  0  0  0  0  0  0  0  0  0  0  0  0
   -3.0170   49.0620  -13.6250 C   0  0  0  0  0  0  0  0  0  0  0  0
   -4.1360   49.1380  -12.8660 F   0  0  0  0  0  0  0  0  0  0  0  0
   -2.3200   47.8940  -13.7720 C   0  0  0  0  0  0  0  0  0  0  0  0
   -1.1760   47.8360  -14.5530 C   0  0  0  0  0  0  0  0  0  0  0  0
    1.6914   53.4648  -19.3065 H   0  0  0  0  0  0  0  0  0  0  0  0
    1.8200   52.8074  -15.0483 H   0  0  0  0  0  0  0  0  0  0  0  0
    0.5387   49.1392  -18.7418 H   0  0  0  0  0  0  0  0  0  0  0  0
    0.8749   54.5543  -21.1201 H   0  0  0  0  0  0  0  0  0  0  0  0
    2.2627   53.5168  -21.3262 H   0  0  0  0  0  0  0  0  0  0  0  0
    0.4793   54.6876  -23.3390 H   0  0  0  0  0  0  0  0  0  0  0  0
    2.1750   54.2989  -23.4482 H   0  0  0  0  0  0  0  0  0  0  0  0
    1.7871   52.1786  -24.1116 H   0  0  0  0  0  0  0  0  0  0  0  0
    0.3046   52.0695  -23.1358 H   0  0  0  0  0  0  0  0  0  0  0  0
   -0.4520   54.8221  -25.2733 H   0  0  0  0  0  0  0  0  0  0  0  0
    1.2613   54.4784  -25.3804 H   0  0  0  0  0  0  0  0  0  0  0  0
   -0.8070   53.6013  -27.3859 H   0  0  0  0  0  0  0  0  0  0  0  0
    0.3041   54.9600  -27.5797 H   0  0  0  0  0  0  0  0  0  0  0  0
    2.2849   52.4679  -26.1437 H   0  0  0  0  0  0  0  0  0  0  0  0
    1.8435   51.2656  -27.3033 H   0  0  0  0  0  0  0  0  0  0  0  0
    0.4135   50.8745  -25.4559 H   0  0  0  0  0  0  0  0  0  0  0  0
   -0.5832   51.7378  -26.5995 H   0  0  0  0  0  0  0  0  0  0  0  0
   -3.4597   50.0193  -22.8642 H   0  0  0  0  0  0  0  0  0  0  0  0
   -1.7480   47.7989  -21.9337 H   0  0  0  0  0  0  0  0  0  0  0  0
   -2.8770   47.7896  -23.3195 H   0  0  0  0  0  0  0  0  0  0  0  0
   -1.1081   51.0328  -15.5246 H   0  0  0  0  0  0  0  0  0  0  0  0
   -2.6514   47.0418  -13.2935 H   0  0  0  0  0  0  0  0  0  0  0  0
   -0.6523   46.9536  -14.6633 H   0  0  0  0  0  0  0  0  0  0  0  0
  1 12  1  0  0  0  0
  2  1  2  0  0  0  0
  2  3  1  0  0  0  0
  3  4  2  0  0  0  0
  3 39  1  0  0  0  0
  4 11  1  0  0  0  0
  4  5  1  0  0  0  0
  5  7  1  0  0  0  0
  6  5  1  0  0  0  0
  7  8  1  0  0  0  0
  7 40  1  0  0  0  0
  8  9  1  0  0  0  0
 10 29  1  0  0  0  0
 10  8  1  0  0  0  0
 11 10  2  0  0  0  0
 12 11  1  0  0  0  0
 12 41  1  0  0  0  0
 13  2  1  0  0  0  0
 14 13  1  0  0  0  0
 14 42  1  0  0  0  0
 14 43  1  0  0  0  0
 15 14  1  0  0  0  0
 15 44  1  0  0  0  0
 15 45  1  0  0  0  0
 16 15  1  0  0  0  0
 16 46  1  0  0  0  0
 16 47  1  0  0  0  0
 17 16  1  0  0  0  0
 18 17  1  0  0  0  0
 18 48  1  0  0  0  0
 18 49  1  0  0  0  0
 19 18  1  0  0  0  0
 19 50  1  0  0  0  0
 19 51  1  0  0  0  0
 20 19  1  0  0  0  0
 20 21  1  0  0  0  0
 21 22  1  0  0  0  0
 21 52  1  0  0  0  0
 21 53  1  0  0  0  0
 22 17  1  0  0  0  0
 22 54  1  0  0  0  0
 22 55  1  0  0  0  0
 23  1  1  0  0  0  0
 24 23  1  0  0  0  0
 24 25  2  0  0  0  0
 26 23  1  0  0  0  0
 27 24  1  0  0  0  0
 27 56  1  0  0  0  0
 28 27  2  0  0  0  0
 28 57  1  0  0  0  0
 28 58  1  0  0  0  0
 29 31  1  0  0  0  0
 30 29  1  0  0  0  0
 31 32  2  0  0  0  0
 31 38  1  0  0  0  0
 32 33  1  0  0  0  0
 32 59  1  0  0  0  0
 33 34  1  0  0  0  0
 33 35  2  0  0  0  0
 35 36  1  0  0  0  0
 37 35  1  0  0  0  0
 37 60  1  0  0  0  0
 38 37  2  0  0  0  0
 38 61  1  0  0  0  0
M  END
>  <REMARK>
 VINA RESULT:      -7.2      4.271      9.048
  9 active torsions:
  status: ('A' for Active; 'I' for Inactive)
    1  A    between atoms: C_2  and  C_3 
       I    between atoms: C_3  and  N_5 
    2  A    between atoms: N_5  and  C_7 
    3  A    between atoms: C_8  and  O_9 
    4  A    between atoms: O_9  and  C_10 
    5  A    between atoms: C_10  and  C_11 
    6  A    between atoms: C_11  and  C_12 
    7  A    between atoms: C_12  and  N_13 
    8  A    between atoms: C_26  and  N_27 
    9  A    between atoms: N_27  and  C_29 

>  <TORSDO>
F 9

$$$$
resistance_project/docking/8faf60323ce63d5a/P00533_WT/docked/molecule_0008_out.pdbqt
 OpenBabel09142609543D

 61 64  0  0  0  0  0  0  0  0999 V2000
   -1.3460   51.3480  -23.3890 C   0  0  0  0  0  0  0  0  0  0  0  0
   -2.6470   51.7140  -23.6590 C   0  0  0  0  0  0  0  0  0  0  0  0
   -3.6280   51.5190  -22.7150 C   0  0  0  0  0  0  0  0  0  0  0  0
   -3.3330   50.9630  -21.5060 C   0  0  0  0  0  0  0  0  0  0  0  0
   -4.3360   50.7990  -20.6290 N   0  0  0  0  0  0  0  0  0  0  0  0
   -5.2900   51.0800  -20.8560 H   0  0  0  0  0  0  0  0  0  0  0  0
   -4.0370   50.2510  -19.4400 C   0  0  0  0  0  0  0  0  0  0  0  0
   -2.7990   49.8660  -19.0940 N   0  0  0  0  0  0  0  0  0  0  0  0
   -2.6160   49.4530  -18.1790 H   0  0  0  0  0  0  0  0  0  0  0  0
   -1.8080   50.0370  -19.9830 C   0  0  0  0  0  0  0  0  0  0  0  0
   -2.0230   50.5940  -21.2350 C   0  0  0  0  0  0  0  0  0  0  0  0
   -1.0110   50.7750  -22.1550 C   0  0  0  0  0  0  0  0  0  0  0  0
   -3.0390   52.2890  -24.8730 O   0  0  0  0  0  0  0  0  0  0  0  0
   -3.9790   51.6510  -25.7240 C   0  0  0  0  0  0  0  0  0  0  0  0
   -3.2530   51.0390  -26.8870 C   0  0  0  0  0  0  0  0  0  0  0  0
   -2.8550   49.6290  -26.5280 C   0  0  0  0  0  0  0  0  0  0  0  0
   -3.8130   48.9530  -25.6930 N   0  0  0  0  0  0  0  0  0  0  0  0
   -4.6890   48.0820  -26.4470 C   0  0  0  0  0  0  0  0  0  0  0  0
   -5.0330   46.8390  -25.6160 C   0  0  0  0  0  0  0  0  0  0  0  0
   -3.9100   46.0870  -25.3210 O   0  0  0  0  0  0  0  0  0  0  0  0
   -2.7530   46.8670  -25.1980 C   0  0  0  0  0  0  0  0  0  0  0  0
   -3.1870   48.2030  -24.6540 C   0  0  0  0  0  0  0  0  0  0  0  0
   -0.3650   51.5710  -24.3980 N   0  0  0  0  0  0  0  0  0  0  0  0
    0.7260   52.4660  -24.2790 C   0  0  0  0  0  0  0  0  0  0  0  0
    0.8710   53.1160  -23.2090 O   0  0  0  0  0  0  0  0  0  0  0  0
   -0.4550   51.0490  -25.2700 H   0  0  0  0  0  0  0  0  0  0  0  0
    1.6400   52.5980  -25.4070 C   0  0  0  0  0  0  0  0  0  0  0  0
    1.4450   51.9100  -26.5210 C   0  0  0  0  0  0  0  0  0  0  0  0
   -0.4970   49.6240  -19.6110 N   0  0  0  0  0  0  0  0  0  0  0  0
   -0.0780   48.7950  -20.0320 H   0  0  0  0  0  0  0  0  0  0  0  0
    0.2270   50.3860  -18.6390 C   0  0  0  0  0  0  0  0  0  0  0  0
    0.3660   49.7970  -17.3850 C   0  0  0  0  0  0  0  0  0  0  0  0
    1.0570   50.4870  -16.4040 C   0  0  0  0  0  0  0  0  0  0  0  0
    1.2780   49.8100  -14.7850 Cl  0  0  0  0  0  0  0  0  0  0  0  0
    1.5890   51.7380  -16.6920 C   0  0  0  0  0  0  0  0  0  0  0  0
    2.2580   52.3810  -15.7060 F   0  0  0  0  0  0  0  0  0  0  0  0
    1.4310   52.2850  -17.9350 C   0  0  0  0  0  0  0  0  0  0  0  0
    0.7430   51.6110  -18.9320 C   0  0  0  0  0  0  0  0  0  0  0  0
   -4.5995   51.7971  -22.9246 H   0  0  0  0  0  0  0  0  0  0  0  0
   -4.6490   49.3771  -19.3582 H   0  0  0  0  0  0  0  0  0  0  0  0
   -0.2747   51.4042  -21.7001 H   0  0  0  0  0  0  0  0  0  0  0  0
   -4.4933   50.8864  -25.1802 H   0  0  0  0  0  0  0  0  0  0  0  0
   -4.6886   52.3687  -26.0794 H   0  0  0  0  0  0  0  0  0  0  0  0
   -3.8946   51.0241  -27.7432 H   0  0  0  0  0  0  0  0  0  0  0  0
   -2.3803   51.6153  -27.1133 H   0  0  0  0  0  0  0  0  0  0  0  0
   -1.9196   49.6635  -26.0095 H   0  0  0  0  0  0  0  0  0  0  0  0
   -2.7939   49.0783  -27.4434 H   0  0  0  0  0  0  0  0  0  0  0  0
   -4.1988   47.7809  -27.3492 H   0  0  0  0  0  0  0  0  0  0  0  0
   -5.5904   48.6081  -26.6827 H   0  0  0  0  0  0  0  0  0  0  0  0
   -5.7195   46.2326  -26.1691 H   0  0  0  0  0  0  0  0  0  0  0  0
   -5.4637   47.1668  -24.6930 H   0  0  0  0  0  0  0  0  0  0  0  0
   -2.2888   46.9913  -26.1540 H   0  0  0  0  0  0  0  0  0  0  0  0
   -2.0415   46.4002  -24.5493 H   0  0  0  0  0  0  0  0  0  0  0  0
   -3.8802   48.0547  -23.8525 H   0  0  0  0  0  0  0  0  0  0  0  0
   -2.3339   48.7366  -24.2902 H   0  0  0  0  0  0  0  0  0  0  0  0
    2.4486   53.2353  -25.3362 H   0  0  0  0  0  0  0  0  0  0  0  0
    0.6384   51.2710  -26.5983 H   0  0  0  0  0  0  0  0  0  0  0  0
    2.0996   52.0127  -27.3122 H   0  0  0  0  0  0  0  0  0  0  0  0
   -0.0371   48.8669  -17.1913 H   0  0  0  0  0  0  0  0  0  0  0  0
    1.8307   53.2153  -18.1344 H   0  0  0  0  0  0  0  0  0  0  0  0
    0.6254   52.0261  -19.8695 H   0  0  0  0  0  0  0  0  0  0  0  0
  1 12  1  0  0  0  0
  2  1  2  0  0  0  0
  2  3  1  0  0  0  0
  3  4  2  0  0  0  0
  3 39  1  0  0  0  0
  4 11  1  0  0  0  0
  4  5  1  0  0  0  0
  5  7  1  0  0  0  0
  6  5  1  0  0  0  0
  7  8  1  0  0  0  0
  7 40  1  0  0  0  0
  8  9  1  0  0  0  0
 10 29  1  0  0  0  0
 10  8  1  0  0  0  0
 11 10  2  0  0  0  0
 12 11  1  0  0  0  0
 12 41  1  0  0  0  0
 13  2  1  0  0  0  0
 14 13  1  0  0  0  0
 14 42  1  0  0  0  0
 14 43  1  0  0  0  0
 15 16  1  0  0  0  0
 15 14  1  0  0  0  0
 15 44  1  0  0  0  0
 15 45  1  0  0  0  0
 16 17  1  0  0  0  0
 16 46  1  0  0  0  0
 16 47  1  0  0  0  0
 17 22  1  0  0  0  0
 18 17  1  0  0  0  0
 18 19  1  0  0  0  0
 18 48  1  0  0  0  0
 18 49  1  0  0  0  0
 19 20  1  0  0  0  0
 19 50  1  0  0  0  0
 19 51  1  0  0  0  0
 20 21  1  0  0  0  0
 21 22  1  0  0  0  0
 21 52  1  0  0  0  0
 21 53  1  0  0  0  0
 22 54  1  0  0  0  0
 22 55  1  0  0  0  0
 23 24  1  0  0  0  0
 23  1  1  0  0  0  0
 24 25  2  0  0  0  0
 26 23  1  0  0  0  0
 27 24  1  0  0  0  0
 27 56  1  0  0  0  0
 28 27  2  0  0  0  0
 28 57  1  0  0  0  0
 28 58  1  0  0  0  0
 29 31  1  0  0  0  0
 30 29  1  0  0  0  0
 31 32  1  0  0  0  0
 32 33  2  0  0  0  0
 32 59  1  0  0  0  0
 33 34  1  0  0  0  0
 35 33  1  0  0  0  0
 35 36  1  0  0  0  0
 37 35  2  0  0  0  0
 37 60  1  0  0  0  0
 38 31  2  0  0  0  0
 38 37  1  0  0  0  0
 38 61  1  0  0  0  0
M  END
>  <REMARK>
 VINA RESULT:      -7.0      5.198      9.884
  9 active torsions:
  status: ('A' for Active; 'I' for Inactive)
    1  A    between atoms: C_2  and  C_3 
       I    between atoms: C_3  and  N_5 
    2  A    between atoms: N_5  and  C_7 
    3  A    between atoms: C_8  and  O_9 
    4  A    between atoms: O_9  and  C_10 
    5  A    between atoms: C_10  and  C_11 
    6  A    between atoms: C_11  and  C_12 
    7  A    between atoms: C_12  and  N_13 
    8  A    between atoms: C_26  and  N_27 
    9  A    between atoms: N_27  and  C_29 

>  <TORSDO>
F 9

$$$$
resistance_project/docking/8faf60323ce63d5a/P00533_WT/docked/molecule_0008_out.pdbqt
 OpenBabel09142609543D

 61 64  0  0  0  0  0  0  0  0999 V2000
   -0.5380   49.7660  -20.0670 C   0  0  0  0  0  0  0  0  0  0  0  0
   -1.3070   48.6290  -19.9360 C   0  0  0  0  0  0  0  0  0  0  0  0
   -2.1970   48.2810  -20.9230 C   0  0  0  0  0  0  0  0  0  0  0  0
   -2.3360   49.0480  -22.0410 C   0  0  0  0  0  0  0  0  0  0  0  0
   -3.2230   48.6540  -22.9680 N   0  0  0  0  0  0  0  0  0  0  0  0
   -3.7780   47.8070  -22.8430 H   0  0  0  0  0  0  0  0  0  0  0  0
   -3.3540   49.4160  -24.0660 C   0  0  0  0  0  0  0  0  0  0  0  0
   -2.6470   50.5370  -24.2760 N   0  0  0  0  0  0  0  0  0  0  0  0
   -2.7780   51.0860  -25.1250 H   0  0  0  0  0  0  0  0  0  0  0  0
   -1.7640   50.9170  -23.3390 C   0  0  0  0  0  0  0  0  0  0  0  0
   -1.5620   50.1930  -22.1730 C   0  0  0  0  0  0  0  0  0  0  0  0
   -0.6570   50.5750  -21.2050 C   0  0  0  0  0  0  0  0  0  0  0  0
   -1.2310   47.7850  -18.8220 O   0  0  0  0  0  0  0  0  0  0  0  0
   -2.3450   47.5900  -17.9650 C   0  0  0  0  0  0  0  0  0  0  0  0
   -1.9820   48.0360  -16.5780 C   0  0  0  0  0  0  0  0  0  0  0  0
   -2.8920   49.1720  -16.1770 C   0  0  0  0  0  0  0  0  0  0  0  0
   -2.3830   49.9610  -15.0860 N   0  0  0  0  0  0  0  0  0  0  0  0
   -3.1860   51.1370  -14.8300 C   0  0  0  0  0  0  0  0  0  0  0  0
   -3.2130   51.4340  -13.3250 C   0  0  0  0  0  0  0  0  0  0  0  0
   -3.7990   50.4090  -12.6050 O   0  0  0  0  0  0  0  0  0  0  0  0
   -3.6020   49.1530  -13.1940 C   0  0  0  0  0  0  0  0  0  0  0  0
   -2.2640   49.2030  -13.8830 C   0  0  0  0  0  0  0  0  0  0  0  0
    0.3710   50.0840  -19.0180 N   0  0  0  0  0  0  0  0  0  0  0  0
    0.0790   50.9420  -17.9300 C   0  0  0  0  0  0  0  0  0  0  0  0
   -1.0630   51.4680  -17.8540 O   0  0  0  0  0  0  0  0  0  0  0  0
    1.3000   49.6620  -19.0510 H   0  0  0  0  0  0  0  0  0  0  0  0
    1.1220   51.1830  -16.9390 C   0  0  0  0  0  0  0  0  0  0  0  0
    1.1430   50.5090  -15.8010 C   0  0  0  0  0  0  0  0  0  0  0  0
   -1.0190   52.1090  -23.5660 N   0  0  0  0  0  0  0  0  0  0  0  0
   -1.0960   52.8960  -22.9230 H   0  0  0  0  0  0  0  0  0  0  0  0
   -0.1600   52.1890  -24.7100 C   0  0  0  0  0  0  0  0  0  0  0  0
   -0.5830   53.0370  -25.7290 C   0  0  0  0  0  0  0  0  0  0  0  0
    0.2060   53.1560  -26.8600 C   0  0  0  0  0  0  0  0  0  0  0  0
   -0.2590   54.2110  -28.2010 Cl  0  0  0  0  0  0  0  0  0  0  0  0
    1.3900   52.4330  -26.9470 C   0  0  0  0  0  0  0  0  0  0  0  0
    2.1350   52.5770  -28.0690 F   0  0  0  0  0  0  0  0  0  0  0  0
    1.7730   51.6100  -25.9250 C   0  0  0  0  0  0  0  0  0  0  0  0
    0.9960   51.4760  -24.7840 C   0  0  0  0  0  0  0  0  0  0  0  0
   -2.7677   47.4278  -20.8165 H   0  0  0  0  0  0  0  0  0  0  0  0
   -3.1390   48.7745  -24.8950 H   0  0  0  0  0  0  0  0  0  0  0  0
   -0.9377   51.5529  -20.8736 H   0  0  0  0  0  0  0  0  0  0  0  0
   -2.6086   46.5531  -17.9504 H   0  0  0  0  0  0  0  0  0  0  0  0
   -3.1776   48.1603  -18.3207 H   0  0  0  0  0  0  0  0  0  0  0  0
   -0.9648   48.3675  -16.5618 H   0  0  0  0  0  0  0  0  0  0  0  0
   -2.0950   47.2214  -15.8935 H   0  0  0  0  0  0  0  0  0  0  0  0
   -3.8366   48.7621  -15.8861 H   0  0  0  0  0  0  0  0  0  0  0  0
   -2.9734   49.8221  -17.0229 H   0  0  0  0  0  0  0  0  0  0  0  0
   -4.1842   50.9671  -15.1760 H   0  0  0  0  0  0  0  0  0  0  0  0
   -2.7613   51.9725  -15.3462 H   0  0  0  0  0  0  0  0  0  0  0  0
   -3.7687   52.3334  -13.1603 H   0  0  0  0  0  0  0  0  0  0  0  0
   -2.2019   51.5369  -12.9903 H   0  0  0  0  0  0  0  0  0  0  0  0
   -3.6022   48.3899  -12.4440 H   0  0  0  0  0  0  0  0  0  0  0  0
   -4.3841   48.9266  -13.8883 H   0  0  0  0  0  0  0  0  0  0  0  0
   -1.5466   49.6658  -13.2380 H   0  0  0  0  0  0  0  0  0  0  0  0
   -1.9421   48.2093  -14.1150 H   0  0  0  0  0  0  0  0  0  0  0  0
    1.8520   51.8876  -17.1280 H   0  0  0  0  0  0  0  0  0  0  0  0
    0.4159   49.8031  -15.6059 H   0  0  0  0  0  0  0  0  0  0  0  0
    1.8865   50.6891  -15.1083 H   0  0  0  0  0  0  0  0  0  0  0  0
   -1.4653   53.5654  -25.6434 H   0  0  0  0  0  0  0  0  0  0  0  0
    2.6548   51.0797  -26.0037 H   0  0  0  0  0  0  0  0  0  0  0  0
    1.2864   50.8536  -24.0137 H   0  0  0  0  0  0  0  0  0  0  0  0
  1  2  2  0  0  0  0
  1 23  1  0  0  0  0
  2 13  1  0  0  0  0
  3  2  1  0  0  0  0
  3 39  1  0  0  0  0
  4  3  2  0  0  0  0
  5  6  1  0  0  0  0
  5  4  1  0  0  0  0
  7  5  1  0  0  0  0
  7 40  1  0  0  0  0
  8  7  1  0  0  0  0
  8 10  1  0  0  0  0
  9  8  1  0  0  0  0
 10 11  2  0  0  0  0
 11  4  1  0  0  0  0
 11 12  1  0  0  0  0
 12  1  1  0  0  0  0
 12 41  1  0  0  0  0
 13 14  1  0  0  0  0
 14 15  1  0  0  0  0
 14 42  1  0  0  0  0
 14 43  1  0  0  0  0
 15 16  1  0  0  0  0
 15 44  1  0  0  0  0
 15 45  1  0  0  0  0
 16 17  1  0  0  0  0
 16 46  1  0  0  0  0
 16 47  1  0  0  0  0
 17 18  1  0  0  0  0
 17 22  1  0  0  0  0
 18 19  1  0  0  0  0
 18 48  1  0  0  0  0
 18 49  1  0  0  0  0
 19 20  1  0  0  0  0
 19 50  1  0  0  0  0
 19 51  1  0  0  0  0
 21 20  1  0  0  0  0
 21 52  1  0  0  0  0
 21 53  1  0  0  0  0
 22 21  1  0  0  0  0
 22 54  1  0  0  0  0
 22 55  1  0  0  0  0
 23 24  1  0  0  0  0
 24 25  2  0  0  0  0
 24 27  1  0  0  0  0
 26 23  1  0  0  0  0
 27 28  2  0  0  0  0
 27 56  1  0  0  0  0
 28 57  1  0  0  0  0
 28 58  1  0  0  0  0
 29 10  1  0  0  0  0
 29 30  1  0  0  0  0
 31 29  1  0  0  0  0
 32 31  2  0  0  0  0
 32 59  1  0  0  0  0
 33 32  1  0  0  0  0
 34 33  1  0  0  0  0
 35 33  2  0  0  0  0
 35 37  1  0  0  0  0
 36 35  1  0  0  0  0
 37 38  2  0  0  0  0
 37 60  1  0  0  0  0
 38 31  1  0  0  0  0
 38 61  1  0  0  0  0
M  END
>  <REMARK>
 VINA RESULT:      -6.8      2.971      4.642
  9 active torsions:
  status: ('A' for Active; 'I' for Inactive)
    1  A    between atoms: C_2  and  C_3 
       I    between atoms: C_3  and  N_5 
    2  A    between atoms: N_5  and  C_7 
    3  A    between atoms: C_8  and  O_9 
    4  A    between atoms: O_9  and  C_10 
    5  A    between atoms: C_10  and  C_11 
    6  A    between atoms: C_11  and  C_12 
    7  A    between atoms: C_12  and  N_13 
    8  A    between atoms: C_26  and  N_27 
    9  A    between atoms: N_27  and  C_29 

>  <TORSDO>
F 9

$$$$
resistance_project/docking/8faf60323ce63d5a/P00533_WT/docked/molecule_0008_out.pdbqt
 OpenBabel09142609543D

 61 64  0  0  0  0  0  0  0  0999 V2000
    0.5580   51.2240  -19.9850 C   0  0  0  0  0  0  0  0  0  0  0  0
    1.1360   52.2810  -19.3160 C   0  0  0  0  0  0  0  0  0  0  0  0
    1.5430   53.3960  -20.0090 C   0  0  0  0  0  0  0  0  0  0  0  0
    1.3850   53.4750  -21.3610 C   0  0  0  0  0  0  0  0  0  0  0  0
    1.8040   54.5910  -21.9780 N   0  0  0  0  0  0  0  0  0  0  0  0
    2.2280   55.3580  -21.4560 H   0  0  0  0  0  0  0  0  0  0  0  0
    1.6450   54.6600  -23.3100 C   0  0  0  0  0  0  0  0  0  0  0  0
    1.0930   53.6780  -24.0400 N   0  0  0  0  0  0  0  0  0  0  0  0
    0.9920   53.7720  -25.0510 H   0  0  0  0  0  0  0  0  0  0  0  0
    0.6800   52.5700  -23.4070 C   0  0  0  0  0  0  0  0  0  0  0  0
    0.8040   52.4090  -22.0340 C   0  0  0  0  0  0  0  0  0  0  0  0
    0.3820   51.2740  -21.3750 C   0  0  0  0  0  0  0  0  0  0  0  0
    1.3370   52.2850  -17.9310 O   0  0  0  0  0  0  0  0  0  0  0  0
    2.5850   52.6600  -17.3670 C   0  0  0  0  0  0  0  0  0  0  0  0
    2.6210   52.2340  -15.9280 C   0  0  0  0  0  0  0  0  0  0  0  0
    4.0240   52.4120  -15.4010 C   0  0  0  0  0  0  0  0  0  0  0  0
    4.1300   52.2440  -13.9750 N   0  0  0  0  0  0  0  0  0  0  0  0
    2.9610   51.6140  -13.4010 C   0  0  0  0  0  0  0  0  0  0  0  0
    3.3740   50.7100  -12.2320 C   0  0  0  0  0  0  0  0  0  0  0  0
    4.2000   49.6790  -12.6420 O   0  0  0  0  0  0  0  0  0  0  0  0
    5.0010   50.0290  -13.7360 C   0  0  0  0  0  0  0  0  0  0  0  0
    5.2920   51.5010  -13.6070 C   0  0  0  0  0  0  0  0  0  0  0  0
    0.1510   50.0910  -19.2230 N   0  0  0  0  0  0  0  0  0  0  0  0
   -1.1460   49.9030  -18.6870 C   0  0  0  0  0  0  0  0  0  0  0  0
   -2.0270   50.7790  -18.8930 O   0  0  0  0  0  0  0  0  0  0  0  0
    0.8440   49.3620  -19.0500 H   0  0  0  0  0  0  0  0  0  0  0  0
   -1.4070   48.6950  -17.9120 C   0  0  0  0  0  0  0  0  0  0  0  0
   -0.9980   48.5930  -16.6580 C   0  0  0  0  0  0  0  0  0  0  0  0
    0.0990   51.5300  -24.1880 N   0  0  0  0  0  0  0  0  0  0  0  0
    0.6770   50.7740  -24.5530 H   0  0  0  0  0  0  0  0  0  0  0  0
   -1.3080   51.5600  -24.4540 C   0  0  0  0  0  0  0  0  0  0  0  0
   -1.7330   50.8280  -25.5590 C   0  0  0  0  0  0  0  0  0  0  0  0
   -3.0830   50.8180  -25.8660 C   0  0  0  0  0  0  0  0  0  0  0  0
   -3.7050   49.9140  -27.2520 Cl  0  0  0  0  0  0  0  0  0  0  0  0
   -3.9710   51.5330  -25.0710 C   0  0  0  0  0  0  0  0  0  0  0  0
   -5.2830   51.4990  -25.4030 F   0  0  0  0  0  0  0  0  0  0  0  0
   -3.5160   52.2420  -23.9940 C   0  0  0  0  0  0  0  0  0  0  0  0
   -2.1680   52.2640  -23.6690 C   0  0  0  0  0  0  0  0  0  0  0  0
    1.9737   54.1834  -19.4996 H   0  0  0  0  0  0  0  0  0  0  0  0
    1.0475   55.5294  -23.4890 H   0  0  0  0  0  0  0  0  0  0  0  0
    0.9129   50.4450  -21.7943 H   0  0  0  0  0  0  0  0  0  0  0  0
    2.7020   53.7218  -17.4295 H   0  0  0  0  0  0  0  0  0  0  0  0
    3.3802   52.1860  -17.9035 H   0  0  0  0  0  0  0  0  0  0  0  0
    2.3359   51.2056  -15.8505 H   0  0  0  0  0  0  0  0  0  0  0  0
    1.9404   52.8296  -15.3562 H   0  0  0  0  0  0  0  0  0  0  0  0
    4.3567   53.3977  -15.6511 H   0  0  0  0  0  0  0  0  0  0  0  0
    4.6273   51.6520  -15.8521 H   0  0  0  0  0  0  0  0  0  0  0  0
    2.4723   51.0252  -14.1490 H   0  0  0  0  0  0  0  0  0  0  0  0
    2.2944   52.3702  -13.0423 H   0  0  0  0  0  0  0  0  0  0  0  0
    2.4935   50.2925  -11.7901 H   0  0  0  0  0  0  0  0  0  0  0  0
    3.9145   51.3067  -11.5272 H   0  0  0  0  0  0  0  0  0  0  0  0
    5.9132   49.4700  -13.7188 H   0  0  0  0  0  0  0  0  0  0  0  0
    4.5054   49.8145  -14.6597 H   0  0  0  0  0  0  0  0  0  0  0  0
    5.5549   51.7263  -12.5946 H   0  0  0  0  0  0  0  0  0  0  0  0
    6.1053   51.7641  -14.2507 H   0  0  0  0  0  0  0  0  0  0  0  0
   -1.9169   47.9104  -18.3472 H   0  0  0  0  0  0  0  0  0  0  0  0
   -0.4876   49.3738  -16.2166 H   0  0  0  0  0  0  0  0  0  0  0  0
   -1.1894   47.7326  -16.1212 H   0  0  0  0  0  0  0  0  0  0  0  0
   -1.0568   50.3044  -26.1366 H   0  0  0  0  0  0  0  0  0  0  0  0
   -4.1867   52.7694  -23.4135 H   0  0  0  0  0  0  0  0  0  0  0  0
   -1.8269   52.7990  -22.8551 H   0  0  0  0  0  0  0  0  0  0  0  0
  1  2  2  0  0  0  0
  1 23  1  0  0  0  0
  2 13  1  0  0  0  0
  3  2  1  0  0  0  0
  3 39  1  0  0  0  0
  4  3  2  0  0  0  0
  5  6  1  0  0  0  0
  5  4  1  0  0  0  0
  7  5  1  0  0  0  0
  7 40  1  0  0  0  0
  8 10  1  0  0  0  0
  8  7  1  0  0  0  0
  9  8  1  0  0  0  0
 10 11  2  0  0  0  0
 11 12  1  0  0  0  0
 11  4  1  0  0  0  0
 12  1  1  0  0  0  0
 12 41  1  0  0  0  0
 13 14  1  0  0  0  0
 14 15  1  0  0  0  0
 14 42  1  0  0  0  0
 14 43  1  0  0  0  0
 15 16  1  0  0  0  0
 15 44  1  0  0  0  0
 15 45  1  0  0  0  0
 16 17  1  0  0  0  0
 16 46  1  0  0  0  0
 16 47  1  0  0  0  0
 17 22  1  0  0  0  0
 17 18  1  0  0  0  0
 18 19  1  0  0  0  0
 18 48  1  0  0  0  0
 18 49  1  0  0  0  0
 19 50  1  0  0  0  0
 19 51  1  0  0  0  0
 20 19  1  0  0  0  0
 21 22  1  0  0  0  0
 21 20  1  0  0  0  0
 21 52  1  0  0  0  0
 21 53  1  0  0  0  0
 22 54  1  0  0  0  0
 22 55  1  0  0  0  0
 23 26  1  0  0  0  0
 23 24  1  0  0  0  0
 24 27  1  0  0  0  0
 25 24  2  0  0  0  0
 27 28  2  0  0  0  0
 27 56  1  0  0  0  0
 28 57  1  0  0  0  0
 28 58  1  0  0  0  0
 29 10  1  0  0  0  0
 30 29  1  0  0  0  0
 31 29  1  0  0  0  0
 31 38  2  0  0  0  0
 32 31  1  0  0  0  0
 32 59  1  0  0  0  0
 33 32  2  0  0  0  0
 33 35  1  0  0  0  0
 34 33  1  0  0  0  0
 35 37  2  0  0  0  0
 36 35  1  0  0  0  0
 37 38  1  0  0  0  0
 37 60  1  0  0  0  0
 38 61  1  0  0  0  0
M  END
>  <REMARK>
 VINA RESULT:      -6.7      3.283      4.022
  9 active torsions:
  status: ('A' for Active; 'I' for Inactive)
    1  A    between atoms: C_2  and  C_3 
       I    between atoms: C_3  and  N_5 
    2  A    between atoms: N_5  and  C_7 
    3  A    between atoms: C_8  and  O_9 
    4  A    between atoms: O_9  and  C_10 
    5  A    between atoms: C_10  and  C_11 
    6  A    between atoms: C_11  and  C_12 
    7  A    between atoms: C_12  and  N_13 
    8  A    between atoms: C_26  and  N_27 
    9  A    between atoms: N_27  and  C_29 

>  <TORSDO>
F 9

$$$$
resistance_project/docking/8faf60323ce63d5a/P00533_WT/docked/molecule_0008_out.pdbqt
 OpenBabel09142609543D

 61 64  0  0  0  0  0  0  0  0999 V2000
    0.3210   50.4110  -19.4540 C   0  0  0  0  0  0  0  0  0  0  0  0
   -0.2690   49.1760  -19.6160 C   0  0  0  0  0  0  0  0  0  0  0  0
   -0.7160   48.4770  -18.5200 C   0  0  0  0  0  0  0  0  0  0  0  0
   -0.5830   48.9870  -17.2630 C   0  0  0  0  0  0  0  0  0  0  0  0
   -1.0390   48.2540  -16.2350 N   0  0  0  0  0  0  0  0  0  0  0  0
   -1.4720   47.3430  -16.3860 H   0  0  0  0  0  0  0  0  0  0  0  0
   -0.9020   48.7640  -15.0000 C   0  0  0  0  0  0  0  0  0  0  0  0
   -0.3400   49.9570  -14.7520 N   0  0  0  0  0  0  0  0  0  0  0  0
   -0.2570   50.3060  -13.7970 H   0  0  0  0  0  0  0  0  0  0  0  0
    0.1110   50.6760  -15.7910 C   0  0  0  0  0  0  0  0  0  0  0  0
    0.0140   50.2300  -17.1010 C   0  0  0  0  0  0  0  0  0  0  0  0
    0.4730   50.9630  -18.1750 C   0  0  0  0  0  0  0  0  0  0  0  0
   -0.4460   48.5760  -20.8670 O   0  0  0  0  0  0  0  0  0  0  0  0
   -1.7200   48.1160  -21.2940 C   0  0  0  0  0  0  0  0  0  0  0  0
   -2.1800   48.9500  -22.4550 C   0  0  0  0  0  0  0  0  0  0  0  0
   -3.3840   49.7550  -22.0320 C   0  0  0  0  0  0  0  0  0  0  0  0
   -3.3820   51.1030  -22.5350 N   0  0  0  0  0  0  0  0  0  0  0  0
   -2.5630   51.2540  -23.7180 C   0  0  0  0  0  0  0  0  0  0  0  0
   -3.1950   52.2830  -24.6640 C   0  0  0  0  0  0  0  0  0  0  0  0
   -4.4390   51.8790  -25.1120 O   0  0  0  0  0  0  0  0  0  0  0  0
   -5.1220   51.0920  -24.1760 C   0  0  0  0  0  0  0  0  0  0  0  0
   -4.7000   51.5750  -22.8130 C   0  0  0  0  0  0  0  0  0  0  0  0
    0.7660   51.0980  -20.6200 N   0  0  0  0  0  0  0  0  0  0  0  0
    0.1990   52.2960  -21.1160 C   0  0  0  0  0  0  0  0  0  0  0  0
   -0.7630   52.8220  -20.4950 O   0  0  0  0  0  0  0  0  0  0  0  0
    1.5510   50.6980  -21.1350 H   0  0  0  0  0  0  0  0  0  0  0  0
    0.7560   52.8740  -22.3340 C   0  0  0  0  0  0  0  0  0  0  0  0
    0.5890   52.2790  -23.5040 C   0  0  0  0  0  0  0  0  0  0  0  0
    0.7090   51.9400  -15.5200 N   0  0  0  0  0  0  0  0  0  0  0  0
    0.1350   52.7800  -15.4550 H   0  0  0  0  0  0  0  0  0  0  0  0
    2.1280   52.0170  -15.3380 C   0  0  0  0  0  0  0  0  0  0  0  0
    2.6250   51.4260  -14.1800 C   0  0  0  0  0  0  0  0  0  0  0  0
    3.9890   51.4670  -13.9500 C   0  0  0  0  0  0  0  0  0  0  0  0
    4.7010   50.7410  -12.5030 Cl  0  0  0  0  0  0  0  0  0  0  0  0
    4.8200   52.0920  -14.8720 C   0  0  0  0  0  0  0  0  0  0  0  0
    6.1490   52.1120  -14.6120 F   0  0  0  0  0  0  0  0  0  0  0  0
    4.2950   52.6630  -15.9980 C   0  0  0  0  0  0  0  0  0  0  0  0
    2.9310   52.6320  -16.2480 C   0  0  0  0  0  0  0  0  0  0  0  0
   -1.1582   47.5537  -18.6507 H   0  0  0  0  0  0  0  0  0  0  0  0
   -0.3265   48.0490  -14.4500 H   0  0  0  0  0  0  0  0  0  0  0  0
   -0.0451   51.8992  -18.1675 H   0  0  0  0  0  0  0  0  0  0  0  0
   -1.6487   47.0916  -21.5947 H   0  0  0  0  0  0  0  0  0  0  0  0
   -2.4213   48.1993  -20.4901 H   0  0  0  0  0  0  0  0  0  0  0  0
   -1.3941   49.6106  -22.7564 H   0  0  0  0  0  0  0  0  0  0  0  0
   -2.4386   48.3157  -23.2770 H   0  0  0  0  0  0  0  0  0  0  0  0
   -4.2634   49.2617  -22.3901 H   0  0  0  0  0  0  0  0  0  0  0  0
   -3.3591   49.8188  -20.9642 H   0  0  0  0  0  0  0  0  0  0  0  0
   -1.5867   51.5867  -23.4333 H   0  0  0  0  0  0  0  0  0  0  0  0
   -2.4924   50.3116  -24.2197 H   0  0  0  0  0  0  0  0  0  0  0  0
   -3.3002   53.2119  -24.1435 H   0  0  0  0  0  0  0  0  0  0  0  0
   -2.5548   52.3866  -25.5151 H   0  0  0  0  0  0  0  0  0  0  0  0
   -4.8602   50.0619  -24.2994 H   0  0  0  0  0  0  0  0  0  0  0  0
   -6.1811   51.1759  -24.3028 H   0  0  0  0  0  0  0  0  0  0  0  0
   -5.3776   51.1998  -22.0748 H   0  0  0  0  0  0  0  0  0  0  0  0
   -4.7107   52.6447  -22.7915 H   0  0  0  0  0  0  0  0  0  0  0  0
    1.2867   53.7576  -22.2826 H   0  0  0  0  0  0  0  0  0  0  0  0
    0.0594   51.3952  -23.5625 H   0  0  0  0  0  0  0  0  0  0  0  0
    0.9884   52.6987  -24.3580 H   0  0  0  0  0  0  0  0  0  0  0  0
    1.9903   50.9674  -13.5078 H   0  0  0  0  0  0  0  0  0  0  0  0
    4.9242   53.1248  -16.6732 H   0  0  0  0  0  0  0  0  0  0  0  0
    2.5369   53.0627  -17.0990 H   0  0  0  0  0  0  0  0  0  0  0  0
  1 12  1  0  0  0  0
  2  1  2  0  0  0  0
  2  3  1  0  0  0  0
  3  4  2  0  0  0  0
  3 39  1  0  0  0  0
  4 11  1  0  0  0  0
  4  5  1  0  0  0  0
  5  7  1  0  0  0  0
  6  5  1  0  0  0  0
  7  8  1  0  0  0  0
  7 40  1  0  0  0  0
  8  9  1  0  0  0  0
 10 29  1  0  0  0  0
 10  8  1  0  0  0  0
 11 10  2  0  0  0  0
 12 11  1  0  0  0  0
 12 41  1  0  0  0  0
 13  2  1  0  0  0  0
 14 13  1  0  0  0  0
 14 42  1  0  0  0  0
 14 43  1  0  0  0  0
 15 16  1  0  0  0  0
 15 14  1  0  0  0  0
 15 44  1  0  0  0  0
 15 45  1  0  0  0  0
 16 46  1  0  0  0  0
 16 47  1  0  0  0  0
 17 16  1  0  0  0  0
 18 17  1  0  0  0  0
 18 48  1  0  0  0  0
 18 49  1  0  0  0  0
 19 18  1  0  0  0  0
 19 50  1  0  0  0  0
 19 51  1  0  0  0  0
 20 19  1  0  0  0  0
 20 21  1  0  0  0  0
 21 22  1  0  0  0  0
 21 52  1  0  0  0  0
 21 53  1  0  0  0  0
 22 17  1  0  0  0  0
 22 54  1  0  0  0  0
 22 55  1  0  0  0  0
 23  1  1  0  0  0  0
 24 23  1  0  0  0  0
 24 25  2  0  0  0  0
 26 23  1  0  0  0  0
 27 24  1  0  0  0  0
 27 56  1  0  0  0  0
 28 27  2  0  0  0  0
 28 57  1  0  0  0  0
 28 58  1  0  0  0  0
 29 30  1  0  0  0  0
 29 31  1  0  0  0  0
 31 32  2  0  0  0  0
 32 33  1  0  0  0  0
 32 59  1  0  0  0  0
 33 34  1  0  0  0  0
 35 36  1  0  0  0  0
 35 33  2  0  0  0  0
 37 35  1  0  0  0  0
 37 60  1  0  0  0  0
 38 37  2  0  0  0  0
 38 31  1  0  0  0  0
 38 61  1  0  0  0  0
M  END
>  <REMARK>
 VINA RESULT:      -6.7      4.872      9.194
  9 active torsions:
  status: ('A' for Active; 'I' for Inactive)
    1  A    between atoms: C_2  and  C_3 
       I    between atoms: C_3  and  N_5 
    2  A    between atoms: N_5  and  C_7 
    3  A    between atoms: C_8  and  O_9 
    4  A    between atoms: O_9  and  C_10 
    5  A    between atoms: C_10  and  C_11 
    6  A    between atoms: C_11  and  C_12 
    7  A    between atoms: C_12  and  N_13 
    8  A    between atoms: C_26  and  N_27 
    9  A    between atoms: N_27  and  C_29 

>  <TORSDO>
F 9

$$$$
resistance_project/docking/8faf60323ce63d5a/P00533_WT/docked/molecule_0008_out.pdbqt
 OpenBabel09142609543D

 61 64  0  0  0  0  0  0  0  0999 V2000
   -2.0890   51.3030  -19.5890 C   0  0  0  0  0  0  0  0  0  0  0  0
   -2.5670   50.4070  -18.6570 C   0  0  0  0  0  0  0  0  0  0  0  0
   -3.7360   49.7230  -18.8950 C   0  0  0  0  0  0  0  0  0  0  0  0
   -4.4380   49.9180  -20.0470 C   0  0  0  0  0  0  0  0  0  0  0  0
   -5.5720   49.2210  -20.2180 N   0  0  0  0  0  0  0  0  0  0  0  0
   -5.9010   48.5640  -19.5100 H   0  0  0  0  0  0  0  0  0  0  0  0
   -6.2580   49.4200  -21.3550 C   0  0  0  0  0  0  0  0  0  0  0  0
   -5.8660   50.2720  -22.3150 N   0  0  0  0  0  0  0  0  0  0  0  0
   -6.4180   50.3930  -23.1640 H   0  0  0  0  0  0  0  0  0  0  0  0
   -4.7300   50.9620  -22.1270 C   0  0  0  0  0  0  0  0  0  0  0  0
   -3.9570   50.8220  -20.9840 C   0  0  0  0  0  0  0  0  0  0  0  0
   -2.7880   51.5260  -20.7830 C   0  0  0  0  0  0  0  0  0  0  0  0
   -1.9130   50.1450  -17.4490 O   0  0  0  0  0  0  0  0  0  0  0  0
   -1.0970   48.9950  -17.2830 C   0  0  0  0  0  0  0  0  0  0  0  0
    0.1540   49.3810  -16.5490 C   0  0  0  0  0  0  0  0  0  0  0  0
   -0.1720   50.4900  -15.5790 C   0  0  0  0  0  0  0  0  0  0  0  0
    0.4820   50.3530  -14.3040 N   0  0  0  0  0  0  0  0  0  0  0  0
    1.3870   49.2250  -14.2630 C   0  0  0  0  0  0  0  0  0  0  0  0
    2.6030   49.5610  -13.3900 C   0  0  0  0  0  0  0  0  0  0  0  0
    3.3340   50.6160  -13.9040 O   0  0  0  0  0  0  0  0  0  0  0  0
    2.5400   51.5370  -14.6010 C   0  0  0  0  0  0  0  0  0  0  0  0
    1.1900   51.5360  -13.9330 C   0  0  0  0  0  0  0  0  0  0  0  0
   -0.8730   51.9850  -19.2980 N   0  0  0  0  0  0  0  0  0  0  0  0
    0.4190   51.5020  -19.6170 C   0  0  0  0  0  0  0  0  0  0  0  0
    0.5310   50.3970  -20.2110 O   0  0  0  0  0  0  0  0  0  0  0  0
   -0.9370   52.8870  -18.8260 H   0  0  0  0  0  0  0  0  0  0  0  0
    1.5730   52.3110  -19.2390 C   0  0  0  0  0  0  0  0  0  0  0  0
    2.0210   53.2670  -20.0370 C   0  0  0  0  0  0  0  0  0  0  0  0
   -4.3210   51.8670  -23.1480 N   0  0  0  0  0  0  0  0  0  0  0  0
   -4.8310   52.7370  -23.3010 H   0  0  0  0  0  0  0  0  0  0  0  0
   -3.1850   51.5410  -23.9570 C   0  0  0  0  0  0  0  0  0  0  0  0
   -2.2750   52.5720  -24.1700 C   0  0  0  0  0  0  0  0  0  0  0  0
   -1.1560   52.3170  -24.9440 C   0  0  0  0  0  0  0  0  0  0  0  0
    0.0480   53.5720  -25.2640 Cl  0  0  0  0  0  0  0  0  0  0  0  0
   -0.9710   51.0490  -25.4830 C   0  0  0  0  0  0  0  0  0  0  0  0
    0.1350   50.8390  -26.2340 F   0  0  0  0  0  0  0  0  0  0  0  0
   -1.8880   50.0610  -25.2520 C   0  0  0  0  0  0  0  0  0  0  0  0
   -3.0150   50.2960  -24.4800 C   0  0  0  0  0  0  0  0  0  0  0  0
   -4.0863   49.0533  -18.1923 H   0  0  0  0  0  0  0  0  0  0  0  0
   -6.3296   48.4616  -21.8254 H   0  0  0  0  0  0  0  0  0  0  0  0
   -3.0318   52.5672  -20.8206 H   0  0  0  0  0  0  0  0  0  0  0  0
   -0.8408   48.5962  -18.2423 H   0  0  0  0  0  0  0  0  0  0  0  0
   -1.6287   48.2540  -16.7234 H   0  0  0  0  0  0  0  0  0  0  0  0
    0.8905   49.7195  -17.2475 H   0  0  0  0  0  0  0  0  0  0  0  0
    0.5386   48.5356  -16.0177 H   0  0  0  0  0  0  0  0  0  0  0  0
   -1.2297   50.4975  -15.4173 H   0  0  0  0  0  0  0  0  0  0  0  0
    0.1802   51.4013  -16.0153 H   0  0  0  0  0  0  0  0  0  0  0  0
    1.7152   48.9975  -15.2557 H   0  0  0  0  0  0  0  0  0  0  0  0
    0.8780   48.3806  -13.8472 H   0  0  0  0  0  0  0  0  0  0  0  0
    3.2346   48.6993  -13.3311 H   0  0  0  0  0  0  0  0  0  0  0  0
    2.2464   49.8464  -12.4224 H   0  0  0  0  0  0  0  0  0  0  0  0
    2.9760   52.5128  -14.5502 H   0  0  0  0  0  0  0  0  0  0  0  0
    2.4587   51.2712  -15.6343 H   0  0  0  0  0  0  0  0  0  0  0  0
    0.6361   52.3968  -14.2447 H   0  0  0  0  0  0  0  0  0  0  0  0
    1.3152   51.5610  -12.8706 H   0  0  0  0  0  0  0  0  0  0  0  0
    2.0456   52.1356  -18.3385 H   0  0  0  0  0  0  0  0  0  0  0  0
    1.5531   53.4477  -20.9389 H   0  0  0  0  0  0  0  0  0  0  0  0
    2.8382   53.8318  -19.7574 H   0  0  0  0  0  0  0  0  0  0  0  0
   -2.4309   53.5061  -23.7600 H   0  0  0  0  0  0  0  0  0  0  0  0
   -1.7384   49.1247  -25.6593 H   0  0  0  0  0  0  0  0  0  0  0  0
   -3.7052   49.5486  -24.3068 H   0  0  0  0  0  0  0  0  0  0  0  0
  1 23  1  0  0  0  0
  1  2  2  0  0  0  0
  2 13  1  0  0  0  0
  3  2  1  0  0  0  0
  3 39  1  0  0  0  0
  4  3  2  0  0  0  0
  5  4  1  0  0  0  0
  5  6  1  0  0  0  0
  7  5  1  0  0  0  0
  7 40  1  0  0  0  0
  8 10  1  0  0  0  0
  8  7  1  0  0  0  0
  9  8  1  0  0  0  0
 10 11  2  0  0  0  0
 11 12  1  0  0  0  0
 11  4  1  0  0  0  0
 12  1  1  0  0  0  0
 12 41  1  0  0  0  0
 13 14  1  0  0  0  0
 14 15  1  0  0  0  0
 14 42  1  0  0  0  0
 14 43  1  0  0  0  0
 15 16  1  0  0  0  0
 15 44  1  0  0  0  0
 15 45  1  0  0  0  0
 16 17  1  0  0  0  0
 16 46  1  0  0  0  0
 16 47  1  0  0  0  0
 17 18  1  0  0  0  0
 17 22  1  0  0  0  0
 18 19  1  0  0  0  0
 18 48  1  0  0  0  0
 18 49  1  0  0  0  0
 19 50  1  0  0  0  0
 19 51  1  0  0  0  0
 20 19  1  0  0  0  0
 21 22  1  0  0  0  0
 21 20  1  0  0  0  0
 21 52  1  0  0  0  0
 21 53  1  0  0  0  0
 22 54  1  0  0  0  0
 22 55  1  0  0  0  0
 23 26  1  0  0  0  0
 24 23  1  0  0  0  0
 24 27  1  0  0  0  0
 25 24  2  0  0  0  0
 27 56  1  0  0  0  0
 28 27  2  0  0  0  0
 28 57  1  0  0  0  0
 28 58  1  0  0  0  0
 29 10  1  0  0  0  0
 30 29  1  0  0  0  0
 31 29  1  0  0  0  0
 32 31  1  0  0  0  0
 32 59  1  0  0  0  0
 33 32  2  0  0  0  0
 34 33  1  0  0  0  0
 35 37  2  0  0  0  0
 35 33  1  0  0  0  0
 36 35  1  0  0  0  0
 37 38  1  0  0  0  0
 37 60  1  0  0  0  0
 38 31  2  0  0  0  0
 38 61  1  0  0  0  0
M  END
>  <REMARK>
 VINA RESULT:      -6.6      3.011      5.219
  9 active torsions:
  status: ('A' for Active; 'I' for Inactive)
    1  A    between atoms: C_2  and  C_3 
       I    between atoms: C_3  and  N_5 
    2  A    between atoms: N_5  and  C_7 
    3  A    between atoms: C_8  and  O_9 
    4  A    between atoms: O_9  and  C_10 
    5  A    between atoms: C_10  and  C_11 
    6  A    between atoms: C_11  and  C_12 
    7  A    between atoms: C_12  and  N_13 
    8  A    between atoms: C_26  and  N_27 
    9  A    between atoms: N_27  and  C_29 

>  <TORSDO>
F 9

$$$$
