resistance_project/docking/8faf60323ce63d5a/P00533_WT/docked/molecule_0009_out.pdbqt
 OpenBabel09142609543D

 61 65  0  0  1  0  0  0  0  0999 V2000
   -0.7160   49.1890  -18.1370 C   0  0  0  0  0  0  0  0  0  0  0  0
   -0.6570   48.9050  -19.4820 C   0  0  0  0  0  0  0  0  0  0  0  0
    0.0150   49.7590  -20.3690 C   0  0  0  0  0  0  0  0  0  0  0  0
    0.6070   50.8940  -19.8070 C   0  0  0  0  0  0  0  0  0  0  0  0
    1.2400   51.7110  -20.6470 N   0  0  0  0  0  0  0  0  0  0  0  0
    1.2710   51.4820  -21.6400 H   0  0  0  0  0  0  0  0  0  0  0  0
    1.8450   52.8500  -20.2020 C   0  0  0  0  0  0  0  0  0  0  0  0
    1.7920   53.1380  -18.8680 N   0  0  0  0  0  0  0  0  0  0  0  0
    2.2370   53.9840  -18.5140 H   0  0  0  0  0  0  0  0  0  0  0  0
    1.1560   52.3150  -18.0230 C   0  0  1  0  0  0  0  0  0  0  0  0
    0.5380   51.1620  -18.4500 C   0  0  0  0  0  0  0  0  0  0  0  0
   -0.1340   50.3080  -17.5700 C   0  0  0  0  0  0  0  0  0  0  0  0
   -1.2570   47.7670  -20.0120 O   0  0  0  0  0  0  0  0  0  0  0  0
   -2.6100   47.6430  -20.2800 C   0  0  0  0  0  0  0  0  0  0  0  0
   -3.1230   48.3500  -21.4540 C   0  0  1  0  0  0  0  0  0  0  0  0
   -2.4800   48.6200  -22.6320 N   0  0  0  0  0  0  0  0  0  0  0  0
   -3.3960   49.2980  -23.3880 C   0  0  1  0  0  0  0  0  0  0  0  0
   -1.5260   48.3710  -22.8890 H   0  0  0  0  0  0  0  0  0  0  0  0
   -4.5440   49.4210  -22.6750 N   0  0  0  0  0  0  0  0  0  0  0  0
   -4.3300   48.8470  -21.5470 O   0  0  0  0  0  0  0  0  0  0  0  0
   -5.4040   49.8790  -22.9740 H   0  0  0  0  0  0  0  0  0  0  0  0
   -3.2310   49.8390  -24.7610 C   0  0  0  0  0  0  0  0  0  0  0  0
   -3.3010   51.6370  -24.6590 S   0  0  0  0  0  0  0  0  0  0  0  0
   -4.1360   52.0620  -25.8470 O   0  0  0  0  0  0  0  0  0  0  0  0
   -3.9830   52.0810  -23.4110 O   0  0  0  0  0  0  0  0  0  0  0  0
   -1.6760   52.2000  -24.8010 C   0  0  0  0  0  0  0  0  0  0  0  0
   -1.3140   53.0310  -25.7860 N   0  0  0  0  0  0  0  0  0  0  0  0
   -0.0560   53.5020  -25.9430 C   0  0  0  0  0  0  0  0  0  0  0  0
   -2.0250   53.3260  -26.4550 H   0  0  0  0  0  0  0  0  0  0  0  0
    0.9070   53.1090  -25.0450 C   0  0  0  0  0  0  0  0  0  0  0  0
    0.6060   52.2620  -24.0160 C   0  0  0  0  0  0  0  0  0  0  0  0
   -0.6950   51.8120  -23.9040 C   0  0  0  0  0  0  0  0  0  0  0  0
   -1.3950   48.3260  -17.2630 O   0  0  0  0  0  0  0  0  0  0  0  0
   -2.6280   48.6650  -16.6840 C   0  0  0  0  0  0  0  0  0  0  0  0
    1.1470   52.6810  -16.6330 N   0  0  0  0  0  0  0  0  0  0  0  0
    0.3540   53.1330  -16.1780 H   0  0  0  0  0  0  0  0  0  0  0  0
    2.3740   52.3430  -15.9410 C   0  0  0  0  0  0  0  0  0  0  0  0
    2.2460   51.5300  -14.8170 C   0  0  0  0  0  0  0  0  0  0  0  0
    3.4120   51.1680  -14.1240 C   0  0  0  0  0  0  0  0  0  0  0  0
    3.2350   50.1400  -12.7080 Cl  0  0  0  0  0  0  0  0  0  0  0  0
    4.6330   51.6100  -14.5580 C   0  0  0  0  0  0  0  0  0  0  0  0
    6.0420   51.1080  -13.6350 Cl  0  0  0  0  0  0  0  0  0  0  0  0
    4.7770   52.4320  -15.6900 C   0  0  0  0  0  0  0  0  0  0  0  0
    3.5910   52.7780  -16.3620 C   0  0  0  0  0  0  0  0  0  0  0  0
    0.7863   49.1916  -20.8466 H   0  0  0  0  0  0  0  0  0  0  0  0
    1.3940   53.6703  -20.7203 H   0  0  0  0  0  0  0  0  0  0  0  0
   -0.9072   50.8727  -17.0923 H   0  0  0  0  0  0  0  0  0  0  0  0
   -2.8183   46.6020  -20.4137 H   0  0  0  0  0  0  0  0  0  0  0  0
   -3.1011   48.0982  -19.4454 H   0  0  0  0  0  0  0  0  0  0  0  0
   -2.2867   49.5339  -25.1611 H   0  0  0  0  0  0  0  0  0  0  0  0
   -4.0046   49.4713  -25.4023 H   0  0  0  0  0  0  0  0  0  0  0  0
    0.1753   54.1416  -26.7191 H   0  0  0  0  0  0  0  0  0  0  0  0
    1.8722   53.4589  -25.1494 H   0  0  0  0  0  0  0  0  0  0  0  0
    0.8461   52.7701  -23.1055 H   0  0  0  0  0  0  0  0  0  0  0  0
   -0.9419   51.1714  -23.1335 H   0  0  0  0  0  0  0  0  0  0  0  0
   -2.9596   47.8642  -16.0566 H   0  0  0  0  0  0  0  0  0  0  0  0
   -3.3494   48.8358  -17.4556 H   0  0  0  0  0  0  0  0  0  0  0  0
   -2.5149   49.5534  -16.0985 H   0  0  0  0  0  0  0  0  0  0  0  0
    1.3192   51.2027  -14.5023 H   0  0  0  0  0  0  0  0  0  0  0  0
    5.7009   52.7627  -16.0096 H   0  0  0  0  0  0  0  0  0  0  0  0
    3.6463   53.3794  -17.1988 H   0  0  0  0  0  0  0  0  0  0  0  0
  1 12  1  0  0  0  0
  1 33  1  0  0  0  0
  2  1  2  0  0  0  0
  3  4  1  0  0  0  0
  3  2  1  0  0  0  0
  3 45  1  0  0  0  0
  4 11  2  0  0  0  0
  5  7  1  0  0  0  0
  5  4  1  0  0  0  0
  6  5  1  0  0  0  0
  7  8  1  0  0  0  0
  7 46  1  0  0  0  0
  8  9  1  0  0  0  0
  8 10  1  0  0  0  0
 10 35  1  1  0  0  0
 11 10  1  0  0  0  0
 11 12  1  0  0  0  0
 12 47  1  0  0  0  0
 13  2  1  0  0  0  0
 14 13  1  0  0  0  0
 14 48  1  0  0  0  0
 14 49  1  0  0  0  0
 15 14  1  6  0  0  0
 16 15  1  0  0  0  0
 17 22  1  1  0  0  0
 17 19  1  0  0  0  0
 17 16  1  0  0  0  0
 18 16  1  0  0  0  0
 19 20  1  0  0  0  0
 20 15  1  0  0  0  0
 21 19  1  0  0  0  0
 22 23  1  0  0  0  0
 22 50  1  0  0  0  0
 22 51  1  0  0  0  0
 23 25  2  0  0  0  0
 24 23  2  0  0  0  0
 26 23  1  0  0  0  0
 26 32  2  0  0  0  0
 27 26  1  0  0  0  0
 28 27  1  0  0  0  0
 28 30  2  0  0  0  0
 28 52  1  0  0  0  0
 29 27  1  0  0  0  0
 30 31  1  0  0  0  0
 30 53  1  0  0  0  0
 31 32  1  0  0  0  0
 31 54  1  0  0  0  0
 32 55  1  0  0  0  0
 33 34  1  0  0  0  0
 34 56  1  0  0  0  0
 34 57  1  0  0  0  0
 34 58  1  0  0  0  0
 35 36  1  0  0  0  0
 35 37  1  0  0  0  0
 37 38  1  0  0  0  0
 38 39  2  0  0  0  0
 38 59  1  0  0  0  0
 39 40  1  0  0  0  0
 41 39  1  0  0  0  0
 41 42  1  0  0  0  0
 43 41  2  0  0  0  0
 43 60  1  0  0  0  0
 44 37  2  0  0  0  0
 44 43  1  0  0  0  0
 44 61  1  0  0  0  0
M  END
>  <MODEL>
1

>  <REMARK>
 VINA RESULT:      -8.7      0.000      0.000
  9 active torsions:
  status: ('A' for Active; 'I' for Inactive)
    1  A    between atoms: O_2  and  C_3 
    2  A    between atoms: C_4  and  O_5 
    3  A    between atoms: O_5  and  C_6 
    4  A    between atoms: C_6  and  C_7 
    5  A    between atoms: C_10  and  C_11 
    6  A    between atoms: C_11  and  S_12 
    7  A    between atoms: S_12  and  C_15 
    8  A    between atoms: C_32  and  N_33 
    9  A    between atoms: N_33  and  C_35 

>  <TORSDO>
F 9

$$$$
resistance_project/docking/8faf60323ce63d5a/P00533_WT/docked/molecule_0009_out.pdbqt
 OpenBabel09142609543D

 61 65  0  0  1  0  0  0  0  0999 V2000
   -1.4760   49.2120  -20.5670 C   0  0  0  0  0  0  0  0  0  0  0  0
   -0.7480   49.1840  -19.4000 C   0  0  0  0  0  0  0  0  0  0  0  0
    0.1470   50.2180  -19.0850 C   0  0  0  0  0  0  0  0  0  0  0  0
    0.2480   51.2540  -20.0170 C   0  0  0  0  0  0  0  0  0  0  0  0
    1.1020   52.2340  -19.7250 N   0  0  0  0  0  0  0  0  0  0  0  0
    1.6320   52.1930  -18.8550 H   0  0  0  0  0  0  0  0  0  0  0  0
    1.2810   53.2890  -20.5720 C   0  0  0  0  0  0  0  0  0  0  0  0
    0.5610   53.3240  -21.7320 N   0  0  0  0  0  0  0  0  0  0  0  0
    0.6800   54.1030  -22.3790 H   0  0  0  0  0  0  0  0  0  0  0  0
   -0.2990   52.3390  -22.0240 C   0  0  1  0  0  0  0  0  0  0  0  0
   -0.4940   51.2650  -21.1870 C   0  0  0  0  0  0  0  0  0  0  0  0
   -1.3850   50.2330  -21.4960 C   0  0  0  0  0  0  0  0  0  0  0  0
   -0.8700   48.1380  -18.4910 O   0  0  0  0  0  0  0  0  0  0  0  0
   -1.9880   47.9040  -17.7070 C   0  0  0  0  0  0  0  0  0  0  0  0
   -2.4880   49.0250  -16.9110 C   0  0  2  0  0  0  0  0  0  0  0  0
   -2.1270   49.3970  -15.6450 N   0  0  0  0  0  0  0  0  0  0  0  0
   -2.8880   50.5000  -15.3680 C   0  0  1  0  0  0  0  0  0  0  0  0
   -1.4400   48.9500  -15.0390 H   0  0  0  0  0  0  0  0  0  0  0  0
   -3.6730   50.7670  -16.4430 N   0  0  0  0  0  0  0  0  0  0  0  0
   -3.4000   49.8710  -17.3210 O   0  0  0  0  0  0  0  0  0  0  0  0
   -4.3460   51.5270  -16.5340 H   0  0  0  0  0  0  0  0  0  0  0  0
   -2.9060   51.3130  -14.1270 C   0  0  0  0  0  0  0  0  0  0  0  0
   -1.2360   51.3250  -13.4500 S   0  0  0  0  0  0  0  0  0  0  0  0
   -1.0700   49.9700  -12.7980 O   0  0  0  0  0  0  0  0  0  0  0  0
   -0.2160   51.4660  -14.5280 O   0  0  0  0  0  0  0  0  0  0  0  0
   -1.1890   52.5940  -12.2800 C   0  0  0  0  0  0  0  0  0  0  0  0
   -2.3100   53.0560  -11.7140 N   0  0  0  0  0  0  0  0  0  0  0  0
   -2.3300   54.0470  -10.7930 C   0  0  0  0  0  0  0  0  0  0  0  0
   -3.1980   52.6380  -11.9900 H   0  0  0  0  0  0  0  0  0  0  0  0
   -1.1360   54.6130  -10.4150 C   0  0  0  0  0  0  0  0  0  0  0  0
    0.0460   54.1890  -10.9550 C   0  0  0  0  0  0  0  0  0  0  0  0
    0.0060   53.1740  -11.8910 C   0  0  0  0  0  0  0  0  0  0  0  0
   -2.3660   48.1690  -20.8690 O   0  0  0  0  0  0  0  0  0  0  0  0
   -3.7500   48.2830  -20.6590 C   0  0  0  0  0  0  0  0  0  0  0  0
   -1.0250   52.4480  -23.2590 N   0  0  0  0  0  0  0  0  0  0  0  0
   -2.0370   52.5750  -23.3040 H   0  0  0  0  0  0  0  0  0  0  0  0
   -0.1820   52.3630  -24.4340 C   0  0  0  0  0  0  0  0  0  0  0  0
   -0.4860   53.2330  -25.4780 C   0  0  0  0  0  0  0  0  0  0  0  0
    0.3150   53.1940  -26.6300 C   0  0  0  0  0  0  0  0  0  0  0  0
   -0.0810   54.2990  -27.9390 Cl  0  0  0  0  0  0  0  0  0  0  0  0
    1.3630   52.3150  -26.7060 C   0  0  0  0  0  0  0  0  0  0  0  0
    2.3160   52.3320  -28.1820 Cl  0  0  0  0  0  0  0  0  0  0  0  0
    1.6810   51.4300  -25.6610 C   0  0  0  0  0  0  0  0  0  0  0  0
    0.8600   51.4940  -24.5200 C   0  0  0  0  0  0  0  0  0  0  0  0
   -0.1632   50.6456  -18.1545 H   0  0  0  0  0  0  0  0  0  0  0  0
    1.0418   54.1770  -20.0251 H   0  0  0  0  0  0  0  0  0  0  0  0
   -1.0777   49.8028  -22.4263 H   0  0  0  0  0  0  0  0  0  0  0  0
   -1.7477   47.1101  -17.0311 H   0  0  0  0  0  0  0  0  0  0  0  0
   -2.7725   47.6843  -18.4007 H   0  0  0  0  0  0  0  0  0  0  0  0
   -3.5824   50.8813  -13.4191 H   0  0  0  0  0  0  0  0  0  0  0  0
   -3.2299   52.3105  -14.3390 H   0  0  0  0  0  0  0  0  0  0  0  0
   -3.2207   54.3702  -10.3841 H   0  0  0  0  0  0  0  0  0  0  0  0
   -1.1318   55.3694   -9.7130 H   0  0  0  0  0  0  0  0  0  0  0  0
    0.5032   55.0354  -11.4234 H   0  0  0  0  0  0  0  0  0  0  0  0
    0.8880   52.8402  -12.3102 H   0  0  0  0  0  0  0  0  0  0  0  0
   -4.2319   47.3753  -20.9568 H   0  0  0  0  0  0  0  0  0  0  0  0
   -4.1329   49.0968  -21.2386 H   0  0  0  0  0  0  0  0  0  0  0  0
   -3.9396   48.4637  -19.6216 H   0  0  0  0  0  0  0  0  0  0  0  0
   -1.2793   53.8892  -25.4066 H   0  0  0  0  0  0  0  0  0  0  0  0
    2.4720   50.7705  -25.7270 H   0  0  0  0  0  0  0  0  0  0  0  0
    1.0543   50.8637  -23.7263 H   0  0  0  0  0  0  0  0  0  0  0  0
  1  2  2  0  0  0  0
  2  3  1  0  0  0  0
  2 13  1  0  0  0  0
  3 45  1  0  0  0  0
  4  5  1  0  0  0  0
  4  3  1  0  0  0  0
  5  6  1  0  0  0  0
  7  5  1  0  0  0  0
  7 46  1  0  0  0  0
  8  7  1  0  0  0  0
  9  8  1  0  0  0  0
 10 35  1  1  0  0  0
 10  8  1  0  0  0  0
 10 11  1  0  0  0  0
 11  4  2  0  0  0  0
 12 11  1  0  0  0  0
 12  1  1  0  0  0  0
 12 47  1  0  0  0  0
 13 14  1  0  0  0  0
 14 48  1  0  0  0  0
 14 49  1  0  0  0  0
 15 14  1  1  0  0  0
 15 16  1  0  0  0  0
 16 17  1  0  0  0  0
 16 18  1  0  0  0  0
 17 22  1  1  0  0  0
 19 17  1  0  0  0  0
 20 15  1  0  0  0  0
 20 19  1  0  0  0  0
 21 19  1  0  0  0  0
 22 23  1  0  0  0  0
 22 50  1  0  0  0  0
 22 51  1  0  0  0  0
 23 24  2  0  0  0  0
 23 26  1  0  0  0  0
 25 23  2  0  0  0  0
 26 32  2  0  0  0  0
 26 27  1  0  0  0  0
 27 28  1  0  0  0  0
 28 30  2  0  0  0  0
 28 52  1  0  0  0  0
 29 27  1  0  0  0  0
 30 53  1  0  0  0  0
 31 30  1  0  0  0  0
 31 54  1  0  0  0  0
 32 31  1  0  0  0  0
 32 55  1  0  0  0  0
 33 34  1  0  0  0  0
 33  1  1  0  0  0  0
 34 56  1  0  0  0  0
 34 57  1  0  0  0  0
 34 58  1  0  0  0  0
 36 35  1  0  0  0  0
 37 35  1  0  0  0  0
 38 37  2  0  0  0  0
 38 59  1  0  0  0  0
 39 38  1  0  0  0  0
 40 39  1  0  0  0  0
 41 39  2  0  0  0  0
 41 43  1  0  0  0  0
 42 41  1  0  0  0  0
 43 44  2  0  0  0  0
 43 60  1  0  0  0  0
 44 37  1  0  0  0  0
 44 61  1  0  0  0  0
M  END
>  <REMARK>
 VINA RESULT:      -8.7      5.006      9.194
  9 active torsions:
  status: ('A' for Active; 'I' for Inactive)
    1  A    between atoms: O_2  and  C_3 
    2  A    between atoms: C_4  and  O_5 
    3  A    between atoms: O_5  and  C_6 
    4  A    between atoms: C_6  and  C_7 
    5  A    between atoms: C_10  and  C_11 
    6  A    between atoms: C_11  and  S_12 
    7  A    between atoms: S_12  and  C_15 
    8  A    between atoms: C_32  and  N_33 
    9  A    between atoms: N_33  and  C_35 

>  <TORSDO>
F 9

$$$$
resistance_project/docking/8faf60323ce63d5a/P00533_WT/docked/molecule_0009_out.pdbqt
 OpenBabel09142609543D

 60 64  0  0  1  0  0  0  0  0999 V2000
   -0.8110   51.2770  -21.1150 C   0  0  0  0  0  0  0  0  0  0  0  0
    0.4600   51.7930  -21.0180 C   0  0  0  0  0  0  0  0  0  0  0  0
    1.0350   52.4950  -22.0880 C   0  0  0  0  0  0  0  0  0  0  0  0
    0.2480   52.6300  -23.2340 C   0  0  0  0  0  0  0  0  0  0  0  0
    0.7930   53.2890  -24.2550 N   0  0  0  0  0  0  0  0  0  0  0  0
    1.7370   53.6630  -24.1630 H   0  0  0  0  0  0  0  0  0  0  0  0
    0.1100   53.4700  -25.4230 C   0  0  0  0  0  0  0  0  0  0  0  0
   -1.1530   52.9610  -25.5260 N   0  0  0  0  0  0  0  0  0  0  0  0
   -1.6800   53.0850  -26.3900 H   0  0  0  0  0  0  0  0  0  0  0  0
   -1.7010   52.2990  -24.4980 C   0  0  1  0  0  0  0  0  0  0  0  0
   -1.0310   52.1040  -23.3130 C   0  0  0  0  0  0  0  0  0  0  0  0
   -1.6000   51.4050  -22.2430 C   0  0  0  0  0  0  0  0  0  0  0  0
    1.2210   51.6420  -19.8630 O   0  0  0  0  0  0  0  0  0  0  0  0
    1.2340   52.5390  -18.8070 C   0  0  0  0  0  0  0  0  0  0  0  0
    1.2310   51.9770  -17.4570 C   0  0  0  0  0  0  0  0  0  0  0  0
    1.3040   52.6370  -16.2610 N   0  0  0  0  0  0  0  0  0  0  0  0
    1.2650   51.6550  -15.3100 C   0  0  1  0  0  0  0  0  0  0  0  0
    1.3740   53.6430  -16.1100 H   0  0  0  0  0  0  0  0  0  0  0  0
    1.1700   50.4520  -15.9310 N   0  0  0  0  0  0  0  0  0  0  0  0
    1.1540   50.6970  -17.1910 O   0  0  0  0  0  0  0  0  0  0  0  0
    1.1220   49.5360  -15.4860 H   0  0  0  0  0  0  0  0  0  0  0  0
    1.3140   51.8050  -13.8340 C   0  0  0  0  0  0  0  0  0  0  0  0
   -0.3220   51.4190  -13.1840 S   0  0  0  0  0  0  0  0  0  0  0  0
   -1.2300   51.4170  -14.3940 O   0  0  0  0  0  0  0  0  0  0  0  0
   -0.3510   50.0660  -12.5610 O   0  0  0  0  0  0  0  0  0  0  0  0
   -0.7310   52.6950  -12.0950 C   0  0  0  0  0  0  0  0  0  0  0  0
   -2.0050   52.9540  -11.7790 N   0  0  0  0  0  0  0  0  0  0  0  0
   -2.3800   53.9400  -10.9320 C   0  0  0  0  0  0  0  0  0  0  0  0
   -2.7340   52.3760  -12.1980 H   0  0  0  0  0  0  0  0  0  0  0  0
   -1.4020   54.7210  -10.3630 C   0  0  0  0  0  0  0  0  0  0  0  0
   -0.0820   54.5110  -10.6440 C   0  0  0  0  0  0  0  0  0  0  0  0
    0.2430   53.4900  -11.5160 C   0  0  0  0  0  0  0  0  0  0  0  0
   -1.3720   50.5750  -20.0350 O   0  0  0  0  0  0  0  0  0  0  0  0
   -2.3480   51.1430  -19.2010 C   0  0  0  0  0  0  0  0  0  0  0  0
   -3.0360   51.7990  -24.6780 N   0  0  0  0  0  0  0  0  0  0  0  0
   -3.8660   52.2770  -24.3260 H   0  0  0  0  0  0  0  0  0  0  0  0
   -3.0900   50.5500  -25.4100 C   0  0  0  0  0  0  0  0  0  0  0  0
   -3.4770   50.6310  -26.7450 C   0  0  0  0  0  0  0  0  0  0  0  0
   -3.5300   49.4460  -27.4950 C   0  0  0  0  0  0  0  0  0  0  0  0
   -4.0200   49.5650  -29.1790 Cl  0  0  0  0  0  0  0  0  0  0  0  0
   -3.2040   48.2500  -26.9110 C   0  0  0  0  0  0  0  0  0  0  0  0
   -3.2930   46.8150  -27.9200 Cl  0  0  0  0  0  0  0  0  0  0  0  0
   -2.8120   48.1530  -25.5640 C   0  0  0  0  0  0  0  0  0  0  0  0
   -2.7700   49.3580  -24.8400 C   0  0  0  0  0  0  0  0  0  0  0  0
    1.2765   53.4779  -21.7408 H   0  0  0  0  0  0  0  0  0  0  0  0
    0.0395   54.5250  -25.5872 H   0  0  0  0  0  0  0  0  0  0  0  0
   -1.8422   50.4210  -22.5865 H   0  0  0  0  0  0  0  0  0  0  0  0
    1.2453   53.5586  -18.9662 H   0  0  0  0  0  0  0  0  0  0  0  0
    1.5787   52.8099  -13.5792 H   0  0  0  0  0  0  0  0  0  0  0  0
    2.0463   51.1461  -13.4163 H   0  0  0  0  0  0  0  0  0  0  0  0
   -3.3765   54.1021  -10.7181 H   0  0  0  0  0  0  0  0  0  0  0  0
   -1.6693   55.4773   -9.7138 H   0  0  0  0  0  0  0  0  0  0  0  0
    0.3026   55.4187  -11.0600 H   0  0  0  0  0  0  0  0  0  0  0  0
    1.2350   53.3160  -11.7410 H   0  0  0  0  0  0  0  0  0  0  0  0
   -2.6309   50.4354  -18.4499 H   0  0  0  0  0  0  0  0  0  0  0  0
   -3.2057   51.4066  -19.7839 H   0  0  0  0  0  0  0  0  0  0  0  0
   -1.9513   52.0199  -18.7336 H   0  0  0  0  0  0  0  0  0  0  0  0
   -3.7186   51.5389  -27.1719 H   0  0  0  0  0  0  0  0  0  0  0  0
   -2.5688   47.2483  -25.1310 H   0  0  0  0  0  0  0  0  0  0  0  0
   -2.4881   49.3367  -23.8475 H   0  0  0  0  0  0  0  0  0  0  0  0
  1  2  2  0  0  0  0
  1 33  1  0  0  0  0
  2 13  1  0  0  0  0
  3  2  1  0  0  0  0
  3 45  1  0  0  0  0
  4  3  1  0  0  0  0
  5  6  1  0  0  0  0
  5  4  1  0  0  0  0
  7  5  1  0  0  0  0
  7 46  1  0  0  0  0
  8  7  1  0  0  0  0
  8 10  1  0  0  0  0
  9  8  1  0  0  0  0
 10 35  1  1  0  0  0
 10 11  1  0  0  0  0
 11  4  2  0  0  0  0
 11 12  1  0  0  0  0
 12  1  1  0  0  0  0
 12 47  1  0  0  0  0
 13 14  1  0  0  0  0
 14 15  2  0  0  0  0
 14 48  1  0  0  0  0
 15 20  1  0  0  0  0
 15 16  1  0  0  0  0
 16 18  1  0  0  0  0
 16 17  1  0  0  0  0
 17 22  1  6  0  0  0
 19 21  1  0  0  0  0
 19 17  1  0  0  0  0
 20 19  1  0  0  0  0
 22 23  1  0  0  0  0
 22 49  1  0  0  0  0
 22 50  1  0  0  0  0
 23 25  2  0  0  0  0
 23 26  1  0  0  0  0
 24 23  2  0  0  0  0
 26 27  1  0  0  0  0
 26 32  2  0  0  0  0
 27 28  1  0  0  0  0
 28 30  2  0  0  0  0
 28 51  1  0  0  0  0
 29 27  1  0  0  0  0
 30 52  1  0  0  0  0
 31 30  1  0  0  0  0
 31 53  1  0  0  0  0
 32 31  1  0  0  0  0
 32 54  1  0  0  0  0
 33 34  1  0  0  0  0
 34 55  1  0  0  0  0
 34 56  1  0  0  0  0
 34 57  1  0  0  0  0
 35 36  1  0  0  0  0
 37 44  1  0  0  0  0
 37 35  1  0  0  0  0
 38 37  2  0  0  0  0
 38 58  1  0  0  0  0
 39 41  2  0  0  0  0
 39 38  1  0  0  0  0
 40 39  1  0  0  0  0
 41 43  1  0  0  0  0
 42 41  1  0  0  0  0
 43 44  2  0  0  0  0
 43 59  1  0  0  0  0
 44 60  1  0  0  0  0
M  END
>  <REMARK>
 VINA RESULT:      -8.5      5.362     10.472
  9 active torsions:
  status: ('A' for Active; 'I' for Inactive)
    1  A    between atoms: O_2  and  C_3 
    2  A    between atoms: C_4  and  O_5 
    3  A    between atoms: O_5  and  C_6 
    4  A    between atoms: C_6  and  C_7 
    5  A    between atoms: C_10  and  C_11 
    6  A    between atoms: C_11  and  S_12 
    7  A    between atoms: S_12  and  C_15 
    8  A    between atoms: C_32  and  N_33 
    9  A    between atoms: N_33  and  C_35 

>  <TORSDO>
F 9

$$$$
resistance_project/docking/8faf60323ce63d5a/P00533_WT/docked/molecule_0009_out.pdbqt
 OpenBabel09142609543D

 61 65  0  0  1  0  0  0  0  0999 V2000
   -1.1120   49.5620  -20.2580 C   0  0  0  0  0  0  0  0  0  0  0  0
   -0.3280   49.6640  -19.1320 C   0  0  0  0  0  0  0  0  0  0  0  0
    0.5800   50.7230  -18.9820 C   0  0  0  0  0  0  0  0  0  0  0  0
    0.6340   51.6460  -20.0300 C   0  0  0  0  0  0  0  0  0  0  0  0
    1.5010   52.6480  -19.8950 N   0  0  0  0  0  0  0  0  0  0  0  0
    2.0720   52.7050  -19.0520 H   0  0  0  0  0  0  0  0  0  0  0  0
    1.6360   53.5990  -20.8640 C   0  0  0  0  0  0  0  0  0  0  0  0
    0.8600   53.5040  -21.9840 N   0  0  0  0  0  0  0  0  0  0  0  0
    0.9460   54.2040  -22.7210 H   0  0  0  0  0  0  0  0  0  0  0  0
   -0.0120   52.4960  -22.1190 C   0  0  1  0  0  0  0  0  0  0  0  0
   -0.1640   51.5260  -21.1560 C   0  0  0  0  0  0  0  0  0  0  0  0
   -1.0680   50.4690  -21.3000 C   0  0  0  0  0  0  0  0  0  0  0  0
   -0.4040   48.7290  -18.1050 O   0  0  0  0  0  0  0  0  0  0  0  0
   -1.4050   48.6930  -17.1470 C   0  0  0  0  0  0  0  0  0  0  0  0
   -1.2870   49.6270  -16.0270 C   0  0  2  0  0  0  0  0  0  0  0  0
   -0.1820   50.3140  -15.6060 N   0  0  0  0  0  0  0  0  0  0  0  0
   -0.6050   51.0410  -14.5270 C   0  0  1  0  0  0  0  0  0  0  0  0
    0.7550   50.2900  -16.0070 H   0  0  0  0  0  0  0  0  0  0  0  0
   -1.9230   50.7870  -14.3220 N   0  0  0  0  0  0  0  0  0  0  0  0
   -2.2740   49.9500  -15.2300 O   0  0  0  0  0  0  0  0  0  0  0  0
   -2.5160   51.1810  -13.5920 H   0  0  0  0  0  0  0  0  0  0  0  0
    0.1840   51.9670  -13.6770 C   0  0  0  0  0  0  0  0  0  0  0  0
    1.7260   51.1400  -13.2440 S   0  0  0  0  0  0  0  0  0  0  0  0
    1.9220   51.4300  -11.7720 O   0  0  0  0  0  0  0  0  0  0  0  0
    1.6200   49.6660  -13.4320 O   0  0  0  0  0  0  0  0  0  0  0  0
    2.9620   51.8760  -14.1980 C   0  0  0  0  0  0  0  0  0  0  0  0
    4.0990   52.3110  -13.6420 N   0  0  0  0  0  0  0  0  0  0  0  0
    5.0990   52.8940  -14.3430 C   0  0  0  0  0  0  0  0  0  0  0  0
    4.2190   52.1980  -12.6360 H   0  0  0  0  0  0  0  0  0  0  0  0
    4.9440   53.0480  -15.7000 C   0  0  0  0  0  0  0  0  0  0  0  0
    3.8080   52.6260  -16.3300 C   0  0  0  0  0  0  0  0  0  0  0  0
    2.8190   52.0390  -15.5650 C   0  0  0  0  0  0  0  0  0  0  0  0
   -2.0150   48.4950  -20.3940 O   0  0  0  0  0  0  0  0  0  0  0  0
   -1.7340   47.3760  -21.1950 C   0  0  0  0  0  0  0  0  0  0  0  0
   -0.7980   52.4660  -23.3220 N   0  0  0  0  0  0  0  0  0  0  0  0
   -1.8180   52.4950  -23.3240 H   0  0  0  0  0  0  0  0  0  0  0  0
   -0.0020   52.3930  -24.5300 C   0  0  0  0  0  0  0  0  0  0  0  0
   -0.3880   53.2280  -25.5750 C   0  0  0  0  0  0  0  0  0  0  0  0
    0.3650   53.2000  -26.7600 C   0  0  0  0  0  0  0  0  0  0  0  0
   -0.1330   54.2610  -28.0710 Cl  0  0  0  0  0  0  0  0  0  0  0  0
    1.4460   52.3660  -26.8650 C   0  0  0  0  0  0  0  0  0  0  0  0
    2.3350   52.3930  -28.3810 Cl  0  0  0  0  0  0  0  0  0  0  0  0
    1.8460   51.5160  -25.8180 C   0  0  0  0  0  0  0  0  0  0  0  0
    1.0720   51.5680  -24.6450 C   0  0  0  0  0  0  0  0  0  0  0  0
    0.3158   51.2553  -18.0922 H   0  0  0  0  0  0  0  0  0  0  0  0
    1.4217   54.5442  -20.4107 H   0  0  0  0  0  0  0  0  0  0  0  0
   -0.8066   49.9337  -22.1889 H   0  0  0  0  0  0  0  0  0  0  0  0
   -1.4275   47.7033  -16.7409 H   0  0  0  0  0  0  0  0  0  0  0  0
   -2.2942   48.9894  -17.6632 H   0  0  0  0  0  0  0  0  0  0  0  0
   -0.3645   52.2024  -12.7889 H   0  0  0  0  0  0  0  0  0  0  0  0
    0.3833   52.8778  -14.2021 H   0  0  0  0  0  0  0  0  0  0  0  0
    5.9579   53.2155  -13.8698 H   0  0  0  0  0  0  0  0  0  0  0  0
    5.6970   53.4890  -16.2509 H   0  0  0  0  0  0  0  0  0  0  0  0
    4.1022   51.9122  -17.0709 H   0  0  0  0  0  0  0  0  0  0  0  0
    1.9532   51.7144  -16.0234 H   0  0  0  0  0  0  0  0  0  0  0  0
   -2.5554   46.6916  -21.1524 H   0  0  0  0  0  0  0  0  0  0  0  0
   -0.8489   46.8937  -20.8361 H   0  0  0  0  0  0  0  0  0  0  0  0
   -1.5837   47.6903  -22.2067 H   0  0  0  0  0  0  0  0  0  0  0  0
   -1.2055   53.8508  -25.4813 H   0  0  0  0  0  0  0  0  0  0  0  0
    2.6614   50.8896  -25.9057 H   0  0  0  0  0  0  0  0  0  0  0  0
    1.3267   50.9626  -23.8490 H   0  0  0  0  0  0  0  0  0  0  0  0
  1  2  2  0  0  0  0
  2  3  1  0  0  0  0
  2 13  1  0  0  0  0
  3 45  1  0  0  0  0
  4  5  1  0  0  0  0
  4  3  1  0  0  0  0
  5  6  1  0  0  0  0
  7  5  1  0  0  0  0
  7 46  1  0  0  0  0
  8  7  1  0  0  0  0
  9  8  1  0  0  0  0
 10 35  1  1  0  0  0
 10  8  1  0  0  0  0
 10 11  1  0  0  0  0
 11  4  2  0  0  0  0
 12 11  1  0  0  0  0
 12  1  1  0  0  0  0
 12 47  1  0  0  0  0
 13 14  1  0  0  0  0
 14 48  1  0  0  0  0
 14 49  1  0  0  0  0
 15 14  1  1  0  0  0
 15 16  1  0  0  0  0
 15 20  1  0  0  0  0
 16 17  1  0  0  0  0
 17 19  1  0  0  0  0
 17 22  1  1  0  0  0
 18 16  1  0  0  0  0
 19 21  1  0  0  0  0
 20 19  1  0  0  0  0
 22 23  1  0  0  0  0
 22 50  1  0  0  0  0
 22 51  1  0  0  0  0
 23 24  2  0  0  0  0
 25 23  2  0  0  0  0
 26 27  1  0  0  0  0
 26 23  1  0  0  0  0
 27 29  1  0  0  0  0
 28 27  1  0  0  0  0
 28 52  1  0  0  0  0
 30 28  2  0  0  0  0
 30 53  1  0  0  0  0
 31 30  1  0  0  0  0
 31 32  1  0  0  0  0
 31 54  1  0  0  0  0
 32 26  2  0  0  0  0
 32 55  1  0  0  0  0
 33  1  1  0  0  0  0
 34 33  1  0  0  0  0
 34 56  1  0  0  0  0
 34 57  1  0  0  0  0
 34 58  1  0  0  0  0
 36 35  1  0  0  0  0
 37 35  1  0  0  0  0
 38 37  2  0  0  0  0
 38 59  1  0  0  0  0
 39 38  1  0  0  0  0
 40 39  1  0  0  0  0
 41 39  2  0  0  0  0
 41 43  1  0  0  0  0
 42 41  1  0  0  0  0
 43 44  2  0  0  0  0
 43 60  1  0  0  0  0
 44 37  1  0  0  0  0
 44 61  1  0  0  0  0
M  END
>  <REMARK>
 VINA RESULT:      -8.4      4.703      9.015
  9 active torsions:
  status: ('A' for Active; 'I' for Inactive)
    1  A    between atoms: O_2  and  C_3 
    2  A    between atoms: C_4  and  O_5 
    3  A    between atoms: O_5  and  C_6 
    4  A    between atoms: C_6  and  C_7 
    5  A    between atoms: C_10  and  C_11 
    6  A    between atoms: C_11  and  S_12 
    7  A    between atoms: S_12  and  C_15 
    8  A    between atoms: C_32  and  N_33 
    9  A    between atoms: N_33  and  C_35 

>  <TORSDO>
F 9

$$$$
resistance_project/docking/8faf60323ce63d5a/P00533_WT/docked/molecule_0009_out.pdbqt
 OpenBabel09142609543D

 60 64  0  0  1  0  0  0  0  0999 V2000
   -0.3680   50.3080  -19.6430 C   0  0  0  0  0  0  0  0  0  0  0  0
   -0.9900   49.0980  -19.4380 C   0  0  0  0  0  0  0  0  0  0  0  0
   -1.7810   48.5170  -20.4400 C   0  0  0  0  0  0  0  0  0  0  0  0
   -1.8950   49.2350  -21.6330 C   0  0  0  0  0  0  0  0  0  0  0  0
   -2.6530   48.6910  -22.5840 N   0  0  0  0  0  0  0  0  0  0  0  0
   -3.1040   47.7930  -22.4110 H   0  0  0  0  0  0  0  0  0  0  0  0
   -2.8350   49.3150  -23.7840 C   0  0  0  0  0  0  0  0  0  0  0  0
   -2.2200   50.5160  -23.9950 N   0  0  0  0  0  0  0  0  0  0  0  0
   -2.3440   51.0000  -24.8840 H   0  0  0  0  0  0  0  0  0  0  0  0
   -1.4580   51.0630  -23.0380 C   0  0  1  0  0  0  0  0  0  0  0  0
   -1.2620   50.4530  -21.8210 C   0  0  0  0  0  0  0  0  0  0  0  0
   -0.4730   51.0270  -20.8190 C   0  0  0  0  0  0  0  0  0  0  0  0
   -0.8570   48.4060  -18.2390 O   0  0  0  0  0  0  0  0  0  0  0  0
   -1.7870   48.4260  -17.2120 C   0  0  0  0  0  0  0  0  0  0  0  0
   -1.5400   49.3570  -16.1100 C   0  0  0  0  0  0  0  0  0  0  0  0
   -0.4160   50.0940  -15.8550 N   0  0  0  0  0  0  0  0  0  0  0  0
   -0.6990   50.7910  -14.7130 C   0  0  2  0  0  0  0  0  0  0  0  0
    0.4470   50.1180  -16.3980 H   0  0  0  0  0  0  0  0  0  0  0  0
   -1.9560   50.4730  -14.3100 N   0  0  0  0  0  0  0  0  0  0  0  0
   -2.4050   49.6270  -15.1640 O   0  0  0  0  0  0  0  0  0  0  0  0
   -2.4450   50.8330  -13.4910 H   0  0  0  0  0  0  0  0  0  0  0  0
    0.1690   51.7480  -13.9830 C   0  0  0  0  0  0  0  0  0  0  0  0
    1.6540   50.8650  -13.4690 S   0  0  0  0  0  0  0  0  0  0  0  0
    1.7600   51.1170  -11.9810 O   0  0  0  0  0  0  0  0  0  0  0  0
    1.5180   49.3990  -13.6980 O   0  0  0  0  0  0  0  0  0  0  0  0
    2.9720   51.5830  -14.3220 C   0  0  0  0  0  0  0  0  0  0  0  0
    4.1870   51.6730  -13.7700 N   0  0  0  0  0  0  0  0  0  0  0  0
    5.2530   52.2250  -14.3940 C   0  0  0  0  0  0  0  0  0  0  0  0
    4.3180   51.3070  -12.8270 H   0  0  0  0  0  0  0  0  0  0  0  0
    5.0840   52.7200  -15.6650 C   0  0  0  0  0  0  0  0  0  0  0  0
    3.8690   52.6600  -16.2870 C   0  0  0  0  0  0  0  0  0  0  0  0
    2.8150   52.0860  -15.6020 C   0  0  0  0  0  0  0  0  0  0  0  0
    0.4190   50.8770  -18.6290 O   0  0  0  0  0  0  0  0  0  0  0  0
    0.8930   52.1970  -18.7030 C   0  0  0  0  0  0  0  0  0  0  0  0
   -0.8390   52.3250  -23.3350 N   0  0  0  0  0  0  0  0  0  0  0  0
   -0.9640   53.1590  -22.7600 H   0  0  0  0  0  0  0  0  0  0  0  0
   -0.0190   52.2990  -24.5280 C   0  0  0  0  0  0  0  0  0  0  0  0
   -0.4310   53.1130  -25.5800 C   0  0  0  0  0  0  0  0  0  0  0  0
    0.3430   53.1280  -26.7510 C   0  0  0  0  0  0  0  0  0  0  0  0
   -0.1900   54.1620  -28.0700 Cl  0  0  0  0  0  0  0  0  0  0  0  0
    1.4710   52.3560  -26.8380 C   0  0  0  0  0  0  0  0  0  0  0  0
    2.3830   52.4350  -28.3370 Cl  0  0  0  0  0  0  0  0  0  0  0  0
    1.8980   51.5280  -25.7840 C   0  0  0  0  0  0  0  0  0  0  0  0
    1.1020   51.5350  -24.6250 C   0  0  0  0  0  0  0  0  0  0  0  0
   -1.3608   47.5611  -20.6737 H   0  0  0  0  0  0  0  0  0  0  0  0
   -2.4891   48.6455  -24.5436 H   0  0  0  0  0  0  0  0  0  0  0  0
   -0.8901   51.9834  -20.5817 H   0  0  0  0  0  0  0  0  0  0  0  0
   -2.6165   47.8121  -17.2236 H   0  0  0  0  0  0  0  0  0  0  0  0
   -0.3462   52.1243  -13.1240 H   0  0  0  0  0  0  0  0  0  0  0  0
    0.4251   52.5747  -14.6122 H   0  0  0  0  0  0  0  0  0  0  0  0
    6.1717   52.2733  -13.9265 H   0  0  0  0  0  0  0  0  0  0  0  0
    5.8866   53.1432  -16.1567 H   0  0  0  0  0  0  0  0  0  0  0  0
    4.0018   52.1027  -17.1907 H   0  0  0  0  0  0  0  0  0  0  0  0
    1.8895   52.0311  -16.0552 H   0  0  0  0  0  0  0  0  0  0  0  0
    1.4673   52.4193  -17.8280 H   0  0  0  0  0  0  0  0  0  0  0  0
    0.0641   52.8706  -18.7663 H   0  0  0  0  0  0  0  0  0  0  0  0
    1.5088   52.3067  -19.5711 H   0  0  0  0  0  0  0  0  0  0  0  0
   -1.2829   53.6900  -25.5009 H   0  0  0  0  0  0  0  0  0  0  0  0
    2.7482   50.9477  -25.8574 H   0  0  0  0  0  0  0  0  0  0  0  0
    1.3762   50.9435  -23.8250 H   0  0  0  0  0  0  0  0  0  0  0  0
  1  2  2  0  0  0  0
  1 33  1  0  0  0  0
  2 13  1  0  0  0  0
  3  2  1  0  0  0  0
  3 45  1  0  0  0  0
  4  3  1  0  0  0  0
  5  6  1  0  0  0  0
  5  4  1  0  0  0  0
  7  5  1  0  0  0  0
  7 46  1  0  0  0  0
  8  7  1  0  0  0  0
  8 10  1  0  0  0  0
  9  8  1  0  0  0  0
 10 35  1  6  0  0  0
 10 11  1  0  0  0  0
 11  4  2  0  0  0  0
 11 12  1  0  0  0  0
 12  1  1  0  0  0  0
 12 47  1  0  0  0  0
 13 14  1  0  0  0  0
 14 15  2  0  0  0  0
 14 48  1  0  0  0  0
 15 16  1  0  0  0  0
 15 20  1  0  0  0  0
 16 17  1  0  0  0  0
 17 19  1  0  0  0  0
 17 22  1  6  0  0  0
 18 16  1  0  0  0  0
 19 21  1  0  0  0  0
 20 19  1  0  0  0  0
 22 23  1  0  0  0  0
 22 49  1  0  0  0  0
 22 50  1  0  0  0  0
 23 24  2  0  0  0  0
 25 23  2  0  0  0  0
 26 27  1  0  0  0  0
 26 23  1  0  0  0  0
 27 29  1  0  0  0  0
 28 27  1  0  0  0  0
 28 51  1  0  0  0  0
 30 28  2  0  0  0  0
 30 52  1  0  0  0  0
 31 30  1  0  0  0  0
 31 32  1  0  0  0  0
 31 53  1  0  0  0  0
 32 26  2  0  0  0  0
 32 54  1  0  0  0  0
 34 33  1  0  0  0  0
 34 55  1  0  0  0  0
 34 56  1  0  0  0  0
 34 57  1  0  0  0  0
 35 36  1  0  0  0  0
 37 35  1  0  0  0  0
 38 37  2  0  0  0  0
 38 58  1  0  0  0  0
 39 38  1  0  0  0  0
 40 39  1  0  0  0  0
 41 39  2  0  0  0  0
 41 43  1  0  0  0  0
 42 41  1  0  0  0  0
 43 44  2  0  0  0  0
 43 59  1  0  0  0  0
 44 37  1  0  0  0  0
 44 60  1  0  0  0  0
M  END
>  <REMARK>
 VINA RESULT:      -8.2      4.768      9.166
  9 active torsions:
  status: ('A' for Active; 'I' for Inactive)
    1  A    between atoms: O_2  and  C_3 
    2  A    between atoms: C_4  and  O_5 
    3  A    between atoms: O_5  and  C_6 
    4  A    between atoms: C_6  and  C_7 
    5  A    between atoms: C_10  and  C_11 
    6  A    between atoms: C_11  and  S_12 
    7  A    between atoms: S_12  and  C_15 
    8  A    between atoms: C_32  and  N_33 
    9  A    between atoms: N_33  and  C_35 

>  <TORSDO>
F 9

$$$$
resistance_project/docking/8faf60323ce63d5a/P00533_WT/docked/molecule_0009_out.pdbqt
 OpenBabel09142609543D

 61 65  0  0  1  0  0  0  0  0999 V2000
   -4.0610   47.3570  -22.6280 C   0  0  0  0  0  0  0  0  0  0  0  0
   -5.3910   47.4730  -22.2980 C   0  0  0  0  0  0  0  0  0  0  0  0
   -5.7810   47.9370  -21.0330 C   0  0  0  0  0  0  0  0  0  0  0  0
   -4.7490   48.2650  -20.1490 C   0  0  0  0  0  0  0  0  0  0  0  0
   -5.1150   48.6980  -18.9440 N   0  0  0  0  0  0  0  0  0  0  0  0
   -6.1070   48.7760  -18.7200 H   0  0  0  0  0  0  0  0  0  0  0  0
   -4.1850   49.0380  -18.0040 C   0  0  0  0  0  0  0  0  0  0  0  0
   -2.8630   48.9270  -18.3250 N   0  0  0  0  0  0  0  0  0  0  0  0
   -2.1520   49.1750  -17.6380 H   0  0  0  0  0  0  0  0  0  0  0  0
   -2.4950   48.4920  -19.5380 C   0  0  1  0  0  0  0  0  0  0  0  0
   -3.4150   48.1420  -20.5000 C   0  0  0  0  0  0  0  0  0  0  0  0
   -3.0320   47.6800  -21.7630 C   0  0  0  0  0  0  0  0  0  0  0  0
   -6.3960   47.1380  -23.2000 O   0  0  0  0  0  0  0  0  0  0  0  0
   -6.9600   48.0170  -24.1110 C   0  0  0  0  0  0  0  0  0  0  0  0
   -6.2710   49.2900  -24.3210 C   0  0  1  0  0  0  0  0  0  0  0  0
   -5.1880   49.5490  -25.1160 N   0  0  0  0  0  0  0  0  0  0  0  0
   -4.9400   50.8840  -24.9560 C   0  0  1  0  0  0  0  0  0  0  0  0
   -4.6750   48.8890  -25.7010 H   0  0  0  0  0  0  0  0  0  0  0  0
   -5.8540   51.3950  -24.0910 N   0  0  0  0  0  0  0  0  0  0  0  0
   -6.6120   50.4170  -23.7490 O   0  0  0  0  0  0  0  0  0  0  0  0
   -5.9250   52.3620  -23.7760 H   0  0  0  0  0  0  0  0  0  0  0  0
   -3.8730   51.7020  -25.5840 C   0  0  0  0  0  0  0  0  0  0  0  0
   -2.3590   51.4560  -24.6380 S   0  0  0  0  0  0  0  0  0  0  0  0
   -2.5420   52.2880  -23.3880 O   0  0  0  0  0  0  0  0  0  0  0  0
   -2.1940   50.0290  -24.2440 O   0  0  0  0  0  0  0  0  0  0  0  0
   -1.0680   52.0620  -25.6110 C   0  0  0  0  0  0  0  0  0  0  0  0
   -1.2350   53.1350  -26.3930 N   0  0  0  0  0  0  0  0  0  0  0  0
   -0.2580   53.6500  -27.1750 C   0  0  0  0  0  0  0  0  0  0  0  0
   -2.1470   53.5900  -26.4010 H   0  0  0  0  0  0  0  0  0  0  0  0
    0.9750   53.0420  -27.1670 C   0  0  0  0  0  0  0  0  0  0  0  0
    1.2120   51.9430  -26.3920 C   0  0  0  0  0  0  0  0  0  0  0  0
    0.1780   51.4590  -25.6150 C   0  0  0  0  0  0  0  0  0  0  0  0
   -3.6870   46.8890  -23.8980 O   0  0  0  0  0  0  0  0  0  0  0  0
   -2.3480   46.6350  -24.2370 C   0  0  0  0  0  0  0  0  0  0  0  0
   -1.0860   48.4070  -19.8050 N   0  0  0  0  0  0  0  0  0  0  0  0
   -0.5710   47.5270  -19.8250 H   0  0  0  0  0  0  0  0  0  0  0  0
   -0.4660   49.6950  -20.0450 C   0  0  0  0  0  0  0  0  0  0  0  0
    0.1540   50.2950  -18.9520 C   0  0  0  0  0  0  0  0  0  0  0  0
    0.7790   51.5370  -19.1430 C   0  0  0  0  0  0  0  0  0  0  0  0
    1.5590   52.2820  -17.7540 Cl  0  0  0  0  0  0  0  0  0  0  0  0
    0.7690   52.1270  -20.3790 C   0  0  0  0  0  0  0  0  0  0  0  0
    1.5760   53.6800  -20.5320 Cl  0  0  0  0  0  0  0  0  0  0  0  0
    0.1450   51.5330  -21.4910 C   0  0  0  0  0  0  0  0  0  0  0  0
   -0.4720   50.2890  -21.2670 C   0  0  0  0  0  0  0  0  0  0  0  0
   -6.3733   47.1733  -20.5739 H   0  0  0  0  0  0  0  0  0  0  0  0
   -4.3561   48.4153  -17.1509 H   0  0  0  0  0  0  0  0  0  0  0  0
   -2.4427   48.4437  -22.2260 H   0  0  0  0  0  0  0  0  0  0  0  0
   -7.0075   47.5163  -25.0554 H   0  0  0  0  0  0  0  0  0  0  0  0
   -7.9083   48.2808  -23.6914 H   0  0  0  0  0  0  0  0  0  0  0  0
   -4.1491   52.7356  -25.5662 H   0  0  0  0  0  0  0  0  0  0  0  0
   -3.7284   51.4082  -26.6027 H   0  0  0  0  0  0  0  0  0  0  0  0
   -0.4343   54.4794  -27.7633 H   0  0  0  0  0  0  0  0  0  0  0  0
    1.7328   53.4219  -27.7556 H   0  0  0  0  0  0  0  0  0  0  0  0
    2.0177   52.1877  -25.7318 H   0  0  0  0  0  0  0  0  0  0  0  0
    0.3379   50.6285  -25.0236 H   0  0  0  0  0  0  0  0  0  0  0  0
   -2.2956   46.2881  -25.2478 H   0  0  0  0  0  0  0  0  0  0  0  0
   -1.9499   45.8880  -23.5825 H   0  0  0  0  0  0  0  0  0  0  0  0
   -1.7783   47.5354  -24.1390 H   0  0  0  0  0  0  0  0  0  0  0  0
    0.1539   49.8386  -18.0264 H   0  0  0  0  0  0  0  0  0  0  0  0
    0.1402   51.9845  -22.4190 H   0  0  0  0  0  0  0  0  0  0  0  0
   -0.9426   49.8140  -22.0531 H   0  0  0  0  0  0  0  0  0  0  0  0
  1  2  2  0  0  0  0
  1 12  1  0  0  0  0
  2  3  1  0  0  0  0
  3  4  1  0  0  0  0
  3 45  1  0  0  0  0
  4  5  1  0  0  0  0
  5  6  1  0  0  0  0
  5  7  1  0  0  0  0
  7 46  1  0  0  0  0
  8  7  1  0  0  0  0
  8  9  1  0  0  0  0
 10 35  1  6  0  0  0
 10  8  1  0  0  0  0
 11  4  2  0  0  0  0
 11 10  1  0  0  0  0
 12 11  1  0  0  0  0
 12 47  1  0  0  0  0
 13  2  1  0  0  0  0
 14 13  1  0  0  0  0
 14 48  1  0  0  0  0
 14 49  1  0  0  0  0
 15 14  1  6  0  0  0
 15 20  1  0  0  0  0
 16 17  1  0  0  0  0
 16 15  1  0  0  0  0
 17 22  1  1  0  0  0
 17 19  1  0  0  0  0
 18 16  1  0  0  0  0
 19 21  1  0  0  0  0
 19 20  1  0  0  0  0
 22 23  1  0  0  0  0
 22 50  1  0  0  0  0
 22 51  1  0  0  0  0
 23 25  2  0  0  0  0
 23 24  2  0  0  0  0
 26 23  1  0  0  0  0
 27 26  1  0  0  0  0
 28 30  2  0  0  0  0
 28 27  1  0  0  0  0
 28 52  1  0  0  0  0
 29 27  1  0  0  0  0
 30 31  1  0  0  0  0
 30 53  1  0  0  0  0
 31 32  1  0  0  0  0
 31 54  1  0  0  0  0
 32 26  2  0  0  0  0
 32 55  1  0  0  0  0
 33  1  1  0  0  0  0
 34 33  1  0  0  0  0
 34 56  1  0  0  0  0
 34 57  1  0  0  0  0
 34 58  1  0  0  0  0
 36 35  1  0  0  0  0
 37 35  1  0  0  0  0
 37 38  2  0  0  0  0
 38 59  1  0  0  0  0
 39 38  1  0  0  0  0
 39 40  1  0  0  0  0
 41 39  2  0  0  0  0
 42 41  1  0  0  0  0
 43 44  2  0  0  0  0
 43 41  1  0  0  0  0
 43 60  1  0  0  0  0
 44 37  1  0  0  0  0
 44 61  1  0  0  0  0
M  END
>  <REMARK>
 VINA RESULT:      -8.2      3.444      5.239
  9 active torsions:
  status: ('A' for Active; 'I' for Inactive)
    1  A    between atoms: O_2  and  C_3 
    2  A    between atoms: C_4  and  O_5 
    3  A    between atoms: O_5  and  C_6 
    4  A    between atoms: C_6  and  C_7 
    5  A    between atoms: C_10  and  C_11 
    6  A    between atoms: C_11  and  S_12 
    7  A    between atoms: S_12  and  C_15 
    8  A    between atoms: C_32  and  N_33 
    9  A    between atoms: N_33  and  C_35 

>  <TORSDO>
F 9

$$$$
resistance_project/docking/8faf60323ce63d5a/P00533_WT/docked/molecule_0009_out.pdbqt
 OpenBabel09142609543D

 61 65  0  0  1  0  0  0  0  0999 V2000
   -1.1800   49.5430  -20.2980 C   0  0  0  0  0  0  0  0  0  0  0  0
   -0.4060   49.6220  -19.1640 C   0  0  0  0  0  0  0  0  0  0  0  0
    0.5210   50.6620  -18.9970 C   0  0  0  0  0  0  0  0  0  0  0  0
    0.6030   51.5910  -20.0380 C   0  0  0  0  0  0  0  0  0  0  0  0
    1.4870   52.5760  -19.8870 N   0  0  0  0  0  0  0  0  0  0  0  0
    2.0510   52.6160  -19.0380 H   0  0  0  0  0  0  0  0  0  0  0  0
    1.6510   53.5300  -20.8480 C   0  0  0  0  0  0  0  0  0  0  0  0
    0.8850   53.4590  -21.9760 N   0  0  0  0  0  0  0  0  0  0  0  0
    0.9920   54.1610  -22.7070 H   0  0  0  0  0  0  0  0  0  0  0  0
   -0.0040   52.4680  -22.1280 C   0  0  1  0  0  0  0  0  0  0  0  0
   -0.1860   51.4950  -21.1720 C   0  0  0  0  0  0  0  0  0  0  0  0
   -1.1080   50.4560  -21.3340 C   0  0  0  0  0  0  0  0  0  0  0  0
   -0.5100   48.6820  -18.1440 O   0  0  0  0  0  0  0  0  0  0  0  0
   -1.1830   48.8880  -16.9510 C   0  0  0  0  0  0  0  0  0  0  0  0
   -0.4540   49.5800  -15.8880 C   0  0  2  0  0  0  0  0  0  0  0  0
   -0.8830   50.6070  -15.0920 N   0  0  0  0  0  0  0  0  0  0  0  0
    0.1750   50.8860  -14.2710 C   0  0  2  0  0  0  0  0  0  0  0  0
   -1.7930   51.0650  -15.1070 H   0  0  0  0  0  0  0  0  0  0  0  0
    1.1960   50.0440  -14.5760 N   0  0  0  0  0  0  0  0  0  0  0  0
    0.7750   49.2990  -15.5320 O   0  0  0  0  0  0  0  0  0  0  0  0
    2.1140   50.0120  -14.1350 H   0  0  0  0  0  0  0  0  0  0  0  0
    0.2640   51.9170  -13.2070 C   0  0  0  0  0  0  0  0  0  0  0  0
   -0.3360   51.1830  -11.6750 S   0  0  0  0  0  0  0  0  0  0  0  0
   -0.4410   49.7030  -11.9670 O   0  0  0  0  0  0  0  0  0  0  0  0
    0.6350   51.3850  -10.5620 O   0  0  0  0  0  0  0  0  0  0  0  0
   -1.8890   51.8740  -11.3740 C   0  0  0  0  0  0  0  0  0  0  0  0
   -2.0820   53.1970  -11.4300 N   0  0  0  0  0  0  0  0  0  0  0  0
   -3.2760   53.7900  -11.2030 C   0  0  0  0  0  0  0  0  0  0  0  0
   -1.2850   53.7920  -11.6560 H   0  0  0  0  0  0  0  0  0  0  0  0
   -4.3550   52.9930  -10.8990 C   0  0  0  0  0  0  0  0  0  0  0  0
   -4.2270   51.6350  -10.8250 C   0  0  0  0  0  0  0  0  0  0  0  0
   -2.9830   51.0840  -11.0660 C   0  0  0  0  0  0  0  0  0  0  0  0
   -2.1020   48.4940  -20.4520 O   0  0  0  0  0  0  0  0  0  0  0  0
   -1.8780   47.4260  -21.3350 C   0  0  0  0  0  0  0  0  0  0  0  0
   -0.7790   52.4620  -23.3380 N   0  0  0  0  0  0  0  0  0  0  0  0
   -1.7970   52.5220  -23.3510 H   0  0  0  0  0  0  0  0  0  0  0  0
    0.0270   52.3640  -24.5380 C   0  0  0  0  0  0  0  0  0  0  0  0
   -0.3500   53.1790  -25.6030 C   0  0  0  0  0  0  0  0  0  0  0  0
    0.4120   53.1260  -26.7800 C   0  0  0  0  0  0  0  0  0  0  0  0
   -0.0740   54.1600  -28.1170 Cl  0  0  0  0  0  0  0  0  0  0  0  0
    1.4950   52.2890  -26.8600 C   0  0  0  0  0  0  0  0  0  0  0  0
    2.3950   52.2860  -28.3690 Cl  0  0  0  0  0  0  0  0  0  0  0  0
    1.8850   51.4610  -25.7930 C   0  0  0  0  0  0  0  0  0  0  0  0
    1.1010   51.5370  -24.6270 C   0  0  0  0  0  0  0  0  0  0  0  0
    0.2583   51.1930  -18.1060 H   0  0  0  0  0  0  0  0  0  0  0  0
    1.4517   54.4764  -20.3903 H   0  0  0  0  0  0  0  0  0  0  0  0
   -0.8465   49.9219  -22.2236 H   0  0  0  0  0  0  0  0  0  0  0  0
   -1.4713   47.9293  -16.5734 H   0  0  0  0  0  0  0  0  0  0  0  0
   -1.9958   49.5382  -17.1992 H   0  0  0  0  0  0  0  0  0  0  0  0
   -0.3401   52.7611  -13.4669 H   0  0  0  0  0  0  0  0  0  0  0  0
    1.2750   52.2477  -13.0914 H   0  0  0  0  0  0  0  0  0  0  0  0
   -3.3752   54.8158  -11.2566 H   0  0  0  0  0  0  0  0  0  0  0  0
   -5.2747   53.4273  -10.7243 H   0  0  0  0  0  0  0  0  0  0  0  0
   -4.5184   51.3418   -9.8381 H   0  0  0  0  0  0  0  0  0  0  0  0
   -2.8669   50.0598  -11.0152 H   0  0  0  0  0  0  0  0  0  0  0  0
   -2.7042   46.7475  -21.2910 H   0  0  0  0  0  0  0  0  0  0  0  0
   -0.9809   46.9142  -21.0554 H   0  0  0  0  0  0  0  0  0  0  0  0
   -1.7781   47.8022  -22.3317 H   0  0  0  0  0  0  0  0  0  0  0  0
   -1.1673   53.8046  -25.5283 H   0  0  0  0  0  0  0  0  0  0  0  0
    2.7007   50.8325  -25.8611 H   0  0  0  0  0  0  0  0  0  0  0  0
    1.3489   50.9479  -23.8167 H   0  0  0  0  0  0  0  0  0  0  0  0
  1  2  2  0  0  0  0
  2  3  1  0  0  0  0
  2 13  1  0  0  0  0
  3 45  1  0  0  0  0
  4  5  1  0  0  0  0
  4  3  1  0  0  0  0
  5  6  1  0  0  0  0
  7  5  1  0  0  0  0
  7 46  1  0  0  0  0
  8  7  1  0  0  0  0
  9  8  1  0  0  0  0
 10 35  1  1  0  0  0
 10  8  1  0  0  0  0
 10 11  1  0  0  0  0
 11  4  2  0  0  0  0
 12 11  1  0  0  0  0
 12  1  1  0  0  0  0
 12 47  1  0  0  0  0
 13 14  1  0  0  0  0
 14 48  1  0  0  0  0
 14 49  1  0  0  0  0
 15 14  1  6  0  0  0
 15 20  1  0  0  0  0
 15 16  1  0  0  0  0
 16 17  1  0  0  0  0
 17 22  1  1  0  0  0
 18 16  1  0  0  0  0
 19 17  1  0  0  0  0
 19 21  1  0  0  0  0
 20 19  1  0  0  0  0
 22 23  1  0  0  0  0
 22 50  1  0  0  0  0
 22 51  1  0  0  0  0
 23 26  1  0  0  0  0
 23 25  2  0  0  0  0
 24 23  2  0  0  0  0
 26 32  2  0  0  0  0
 27 26  1  0  0  0  0
 27 28  1  0  0  0  0
 28 30  2  0  0  0  0
 28 52  1  0  0  0  0
 29 27  1  0  0  0  0
 30 31  1  0  0  0  0
 30 53  1  0  0  0  0
 31 54  1  0  0  0  0
 32 31  1  0  0  0  0
 32 55  1  0  0  0  0
 33  1  1  0  0  0  0
 34 33  1  0  0  0  0
 34 56  1  0  0  0  0
 34 57  1  0  0  0  0
 34 58  1  0  0  0  0
 36 35  1  0  0  0  0
 37 35  1  0  0  0  0
 38 37  2  0  0  0  0
 38 59  1  0  0  0  0
 39 38  1  0  0  0  0
 40 39  1  0  0  0  0
 41 39  2  0  0  0  0
 41 43  1  0  0  0  0
 42 41  1  0  0  0  0
 43 44  2  0  0  0  0
 43 60  1  0  0  0  0
 44 37  1  0  0  0  0
 44 61  1  0  0  0  0
M  END
>  <REMARK>
 VINA RESULT:      -8.1      5.379      9.854
  9 active torsions:
  status: ('A' for Active; 'I' for Inactive)
    1  A    between atoms: O_2  and  C_3 
    2  A    between atoms: C_4  and  O_5 
    3  A    between atoms: O_5  and  C_6 
    4  A    between atoms: C_6  and  C_7 
    5  A    between atoms: C_10  and  C_11 
    6  A    between atoms: C_11  and  S_12 
    7  A    between atoms: S_12  and  C_15 
    8  A    between atoms: C_32  and  N_33 
    9  A    between atoms: N_33  and  C_35 

>  <TORSDO>
F 9

$$$$
resistance_project/docking/8faf60323ce63d5a/P00533_WT/docked/molecule_0009_out.pdbqt
 OpenBabel09142609543D

 60 64  0  0  1  0  0  0  0  0999 V2000
   -0.8210   51.5780  -21.5830 C   0  0  0  0  0  0  0  0  0  0  0  0
    0.5060   51.9380  -21.5840 C   0  0  0  0  0  0  0  0  0  0  0  0
    1.1030   52.4820  -22.7310 C   0  0  0  0  0  0  0  0  0  0  0  0
    0.2770   52.6280  -23.8490 C   0  0  0  0  0  0  0  0  0  0  0  0
    0.8420   53.1370  -24.9430 N   0  0  0  0  0  0  0  0  0  0  0  0
    1.8280   53.3970  -24.9210 H   0  0  0  0  0  0  0  0  0  0  0  0
    0.1250   53.3140  -26.0900 C   0  0  0  0  0  0  0  0  0  0  0  0
   -1.1940   52.9590  -26.0960 N   0  0  0  0  0  0  0  0  0  0  0  0
   -1.7480   53.0820  -26.9430 H   0  0  0  0  0  0  0  0  0  0  0  0
   -1.7620   52.4480  -24.9960 C   0  0  1  0  0  0  0  0  0  0  0  0
   -1.0580   52.2590  -23.8290 C   0  0  0  0  0  0  0  0  0  0  0  0
   -1.6480   51.7180  -22.6830 C   0  0  0  0  0  0  0  0  0  0  0  0
    1.3030   51.7810  -20.4550 O   0  0  0  0  0  0  0  0  0  0  0  0
    1.3110   52.6430  -19.3710 C   0  0  0  0  0  0  0  0  0  0  0  0
    1.1470   52.0470  -18.0450 C   0  0  0  0  0  0  0  0  0  0  0  0
    1.2500   52.6510  -16.8220 N   0  0  0  0  0  0  0  0  0  0  0  0
    1.0100   51.6570  -15.9140 C   0  0  1  0  0  0  0  0  0  0  0  0
    1.4610   53.6290  -16.6290 H   0  0  0  0  0  0  0  0  0  0  0  0
    0.7710   50.5020  -16.5860 N   0  0  0  0  0  0  0  0  0  0  0  0
    0.8630   50.7860  -17.8340 O   0  0  0  0  0  0  0  0  0  0  0  0
    0.5610   49.5910  -16.1800 H   0  0  0  0  0  0  0  0  0  0  0  0
    0.9970   51.7520  -14.4330 C   0  0  0  0  0  0  0  0  0  0  0  0
    2.4750   50.9260  -13.8140 S   0  0  0  0  0  0  0  0  0  0  0  0
    2.2250   50.7370  -12.3340 O   0  0  0  0  0  0  0  0  0  0  0  0
    2.6500   49.5870  -14.4440 O   0  0  0  0  0  0  0  0  0  0  0  0
    3.7940   52.0040  -14.0940 C   0  0  0  0  0  0  0  0  0  0  0  0
    4.2930   52.7590  -13.1090 N   0  0  0  0  0  0  0  0  0  0  0  0
    5.3240   53.6190  -13.2730 C   0  0  0  0  0  0  0  0  0  0  0  0
    3.8740   52.6820  -12.1820 H   0  0  0  0  0  0  0  0  0  0  0  0
    5.8940   53.7260  -14.5200 C   0  0  0  0  0  0  0  0  0  0  0  0
    5.4320   52.9850  -15.5700 C   0  0  0  0  0  0  0  0  0  0  0  0
    4.3760   52.1230  -15.3440 C   0  0  0  0  0  0  0  0  0  0  0  0
   -1.4040   51.0320  -20.4280 O   0  0  0  0  0  0  0  0  0  0  0  0
   -1.5400   49.6470  -20.2410 C   0  0  0  0  0  0  0  0  0  0  0  0
   -3.1550   52.1040  -25.0760 N   0  0  0  0  0  0  0  0  0  0  0  0
   -3.9030   52.7250  -24.7680 H   0  0  0  0  0  0  0  0  0  0  0  0
   -3.3930   50.7900  -25.6390 C   0  0  0  0  0  0  0  0  0  0  0  0
   -3.5270   50.7260  -27.0230 C   0  0  0  0  0  0  0  0  0  0  0  0
   -3.7450   49.4700  -27.6110 C   0  0  0  0  0  0  0  0  0  0  0  0
   -3.9110   49.4040  -29.3610 Cl  0  0  0  0  0  0  0  0  0  0  0  0
   -3.8200   48.3490  -26.8270 C   0  0  0  0  0  0  0  0  0  0  0  0
   -4.0930   46.8180  -27.6430 Cl  0  0  0  0  0  0  0  0  0  0  0  0
   -3.6880   48.4000  -25.4280 C   0  0  0  0  0  0  0  0  0  0  0  0
   -3.4700   49.6730  -24.8690 C   0  0  0  0  0  0  0  0  0  0  0  0
    1.4790   53.4504  -22.4747 H   0  0  0  0  0  0  0  0  0  0  0  0
    0.1731   54.3545  -26.3350 H   0  0  0  0  0  0  0  0  0  0  0  0
   -2.0242   50.7485  -22.9351 H   0  0  0  0  0  0  0  0  0  0  0  0
    1.4275   53.6611  -19.4933 H   0  0  0  0  0  0  0  0  0  0  0  0
    0.1227   51.2723  -14.0453 H   0  0  0  0  0  0  0  0  0  0  0  0
    0.9849   52.7765  -14.1246 H   0  0  0  0  0  0  0  0  0  0  0  0
    5.6744   54.1812  -12.4817 H   0  0  0  0  0  0  0  0  0  0  0  0
    6.6825   54.3759  -14.6644 H   0  0  0  0  0  0  0  0  0  0  0  0
    5.1249   53.6707  -16.3319 H   0  0  0  0  0  0  0  0  0  0  0  0
    4.0129   51.5549  -16.1253 H   0  0  0  0  0  0  0  0  0  0  0  0
   -2.0080   49.4588  -19.2974 H   0  0  0  0  0  0  0  0  0  0  0  0
   -0.5735   49.1883  -20.2576 H   0  0  0  0  0  0  0  0  0  0  0  0
   -2.1421   49.2386  -21.0256 H   0  0  0  0  0  0  0  0  0  0  0  0
   -3.4677   51.5788  -27.6012 H   0  0  0  0  0  0  0  0  0  0  0  0
   -3.7476   47.5514  -24.8438 H   0  0  0  0  0  0  0  0  0  0  0  0
   -3.3657   49.7606  -23.8460 H   0  0  0  0  0  0  0  0  0  0  0  0
  1 33  1  0  0  0  0
  2  1  2  0  0  0  0
  2 13  1  0  0  0  0
  3  2  1  0  0  0  0
  3 45  1  0  0  0  0
  4 11  2  0  0  0  0
  4  3  1  0  0  0  0
  5  6  1  0  0  0  0
  5  4  1  0  0  0  0
  7  5  1  0  0  0  0
  7 46  1  0  0  0  0
  8  7  1  0  0  0  0
  8 10  1  0  0  0  0
  9  8  1  0  0  0  0
 10 35  1  1  0  0  0
 10 11  1  0  0  0  0
 11 12  1  0  0  0  0
 12  1  1  0  0  0  0
 12 47  1  0  0  0  0
 13 14  1  0  0  0  0
 14 15  2  0  0  0  0
 14 48  1  0  0  0  0
 15 20  1  0  0  0  0
 15 16  1  0  0  0  0
 16 18  1  0  0  0  0
 16 17  1  0  0  0  0
 17 22  1  1  0  0  0
 19 21  1  0  0  0  0
 19 17  1  0  0  0  0
 20 19  1  0  0  0  0
 22 23  1  0  0  0  0
 22 49  1  0  0  0  0
 22 50  1  0  0  0  0
 23 24  2  0  0  0  0
 25 23  2  0  0  0  0
 26 23  1  0  0  0  0
 26 27  1  0  0  0  0
 27 29  1  0  0  0  0
 28 27  1  0  0  0  0
 28 51  1  0  0  0  0
 30 28  2  0  0  0  0
 30 52  1  0  0  0  0
 31 32  1  0  0  0  0
 31 30  1  0  0  0  0
 31 53  1  0  0  0  0
 32 26  2  0  0  0  0
 32 54  1  0  0  0  0
 33 34  1  0  0  0  0
 34 55  1  0  0  0  0
 34 56  1  0  0  0  0
 34 57  1  0  0  0  0
 35 36  1  0  0  0  0
 37 35  1  0  0  0  0
 37 44  2  0  0  0  0
 38 37  1  0  0  0  0
 38 58  1  0  0  0  0
 39 38  2  0  0  0  0
 39 41  1  0  0  0  0
 40 39  1  0  0  0  0
 41 43  2  0  0  0  0
 42 41  1  0  0  0  0
 43 44  1  0  0  0  0
 43 59  1  0  0  0  0
 44 60  1  0  0  0  0
M  END
>  <REMARK>
 VINA RESULT:      -8.0      5.079     10.293
  9 active torsions:
  status: ('A' for Active; 'I' for Inactive)
    1  A    between atoms: O_2  and  C_3 
    2  A    between atoms: C_4  and  O_5 
    3  A    between atoms: O_5  and  C_6 
    4  A    between atoms: C_6  and  C_7 
    5  A    between atoms: C_10  and  C_11 
    6  A    between atoms: C_11  and  S_12 
    7  A    between atoms: S_12  and  C_15 
    8  A    between atoms: C_32  and  N_33 
    9  A    between atoms: N_33  and  C_35 

>  <TORSDO>
F 9

$$$$
resistance_project/docking/8faf60323ce63d5a/P00533_WT/docked/molecule_0009_out.pdbqt
 OpenBabel09142609543D

 61 65  0  0  1  0  0  0  0  0999 V2000
   -3.7780   47.8630  -20.6360 C   0  0  0  0  0  0  0  0  0  0  0  0
   -4.9970   48.0680  -20.0330 C   0  0  0  0  0  0  0  0  0  0  0  0
   -5.0940   48.7760  -18.8260 C   0  0  0  0  0  0  0  0  0  0  0  0
   -3.8940   49.2480  -18.2880 C   0  0  0  0  0  0  0  0  0  0  0  0
   -3.9800   49.9140  -17.1380 N   0  0  0  0  0  0  0  0  0  0  0  0
   -4.8940   50.0540  -16.7080 H   0  0  0  0  0  0  0  0  0  0  0  0
   -2.8660   50.4100  -16.5250 C   0  0  0  0  0  0  0  0  0  0  0  0
   -1.6520   50.2120  -17.1180 N   0  0  0  0  0  0  0  0  0  0  0  0
   -0.8070   50.5740  -16.6760 H   0  0  0  0  0  0  0  0  0  0  0  0
   -1.5660   49.5420  -18.2750 C   0  0  1  0  0  0  0  0  0  0  0  0
   -2.6750   49.0320  -18.9100 C   0  0  0  0  0  0  0  0  0  0  0  0
   -2.5840   48.3260  -20.1130 C   0  0  0  0  0  0  0  0  0  0  0  0
   -6.1760   47.5860  -20.5940 O   0  0  0  0  0  0  0  0  0  0  0  0
   -7.1130   48.3680  -21.2480 C   0  0  0  0  0  0  0  0  0  0  0  0
   -6.8930   48.6190  -22.6730 C   0  0  2  0  0  0  0  0  0  0  0  0
   -6.1970   47.8580  -23.5720 N   0  0  0  0  0  0  0  0  0  0  0  0
   -6.2930   48.5330  -24.7580 C   0  0  2  0  0  0  0  0  0  0  0  0
   -5.7100   46.9800  -23.3970 H   0  0  0  0  0  0  0  0  0  0  0  0
   -7.0280   49.6570  -24.5600 N   0  0  0  0  0  0  0  0  0  0  0  0
   -7.3550   49.6600  -23.3180 O   0  0  0  0  0  0  0  0  0  0  0  0
   -7.2700   50.3600  -25.2570 H   0  0  0  0  0  0  0  0  0  0  0  0
   -5.7190   48.1600  -26.0750 C   0  0  0  0  0  0  0  0  0  0  0  0
   -3.9250   48.2530  -25.9410 S   0  0  0  0  0  0  0  0  0  0  0  0
   -3.5250   47.0010  -25.1910 O   0  0  0  0  0  0  0  0  0  0  0  0
   -3.2800   48.2320  -27.2850 O   0  0  0  0  0  0  0  0  0  0  0  0
   -3.5730   49.6720  -25.0240 C   0  0  0  0  0  0  0  0  0  0  0  0
   -3.2550   49.5970  -23.7260 N   0  0  0  0  0  0  0  0  0  0  0  0
   -2.9710   50.6770  -22.9620 C   0  0  0  0  0  0  0  0  0  0  0  0
   -3.2250   48.6770  -23.2880 H   0  0  0  0  0  0  0  0  0  0  0  0
   -3.0090   51.9200  -23.5460 C   0  0  0  0  0  0  0  0  0  0  0  0
   -3.3260   52.0680  -24.8670 C   0  0  0  0  0  0  0  0  0  0  0  0
   -3.6080   50.9310  -25.5990 C   0  0  0  0  0  0  0  0  0  0  0  0
   -3.6980   47.1510  -21.8430 O   0  0  0  0  0  0  0  0  0  0  0  0
   -2.9770   45.9510  -21.9570 C   0  0  0  0  0  0  0  0  0  0  0  0
   -0.2550   49.3790  -18.8420 N   0  0  0  0  0  0  0  0  0  0  0  0
    0.2640   48.5010  -18.8080 H   0  0  0  0  0  0  0  0  0  0  0  0
    0.2560   50.5810  -19.4680 C   0  0  0  0  0  0  0  0  0  0  0  0
    0.1180   50.6640  -20.8510 C   0  0  0  0  0  0  0  0  0  0  0  0
    0.5870   51.8180  -21.4970 C   0  0  0  0  0  0  0  0  0  0  0  0
    0.4050   51.9100  -23.2430 Cl  0  0  0  0  0  0  0  0  0  0  0  0
    1.1630   52.8260  -20.7680 C   0  0  0  0  0  0  0  0  0  0  0  0
    1.7210   54.2370  -21.6540 Cl  0  0  0  0  0  0  0  0  0  0  0  0
    1.3100   52.7550  -19.3720 C   0  0  0  0  0  0  0  0  0  0  0  0
    0.8290   51.5850  -18.7540 C   0  0  0  0  0  0  0  0  0  0  0  0
   -5.5430   48.1278  -18.1028 H   0  0  0  0  0  0  0  0  0  0  0  0
   -2.8178   49.9677  -15.5519 H   0  0  0  0  0  0  0  0  0  0  0  0
   -2.1374   48.9726  -20.8391 H   0  0  0  0  0  0  0  0  0  0  0  0
   -8.0624   47.8846  -21.1485 H   0  0  0  0  0  0  0  0  0  0  0  0
   -7.0444   49.3294  -20.7834 H   0  0  0  0  0  0  0  0  0  0  0  0
   -6.0136   47.1638  -26.3313 H   0  0  0  0  0  0  0  0  0  0  0  0
   -6.0714   48.8230  -26.8373 H   0  0  0  0  0  0  0  0  0  0  0  0
   -2.7314   50.5696  -21.9640 H   0  0  0  0  0  0  0  0  0  0  0  0
   -2.7948   52.7548  -22.9783 H   0  0  0  0  0  0  0  0  0  0  0  0
   -4.1873   52.7008  -24.9182 H   0  0  0  0  0  0  0  0  0  0  0  0
   -3.8505   51.0221  -26.5980 H   0  0  0  0  0  0  0  0  0  0  0  0
   -3.0517   45.5839  -22.9593 H   0  0  0  0  0  0  0  0  0  0  0  0
   -3.3808   45.2267  -21.2808 H   0  0  0  0  0  0  0  0  0  0  0  0
   -1.9493   46.1283  -21.7178 H   0  0  0  0  0  0  0  0  0  0  0  0
   -0.3177   49.8971  -21.3868 H   0  0  0  0  0  0  0  0  0  0  0  0
    1.7460   53.5176  -18.8304 H   0  0  0  0  0  0  0  0  0  0  0  0
    0.9140   51.4872  -17.7302 H   0  0  0  0  0  0  0  0  0  0  0  0
  1 12  1  0  0  0  0
  1  2  2  0  0  0  0
  2  3  1  0  0  0  0
  3  4  1  0  0  0  0
  3 45  1  0  0  0  0
  4  5  1  0  0  0  0
  5  6  1  0  0  0  0
  5  7  1  0  0  0  0
  7 46  1  0  0  0  0
  8  9  1  0  0  0  0
  8  7  1  0  0  0  0
 10 35  1  6  0  0  0
 10  8  1  0  0  0  0
 11  4  2  0  0  0  0
 11 10  1  0  0  0  0
 12 11  1  0  0  0  0
 12 47  1  0  0  0  0
 13  2  1  0  0  0  0
 14 13  1  0  0  0  0
 14 48  1  0  0  0  0
 14 49  1  0  0  0  0
 15 14  1  1  0  0  0
 16 18  1  0  0  0  0
 16 15  1  0  0  0  0
 17 22  1  6  0  0  0
 17 19  1  0  0  0  0
 17 16  1  0  0  0  0
 19 20  1  0  0  0  0
 20 15  1  0  0  0  0
 21 19  1  0  0  0  0
 22 23  1  0  0  0  0
 22 50  1  0  0  0  0
 22 51  1  0  0  0  0
 23 24  2  0  0  0  0
 23 26  1  0  0  0  0
 25 23  2  0  0  0  0
 26 27  1  0  0  0  0
 27 29  1  0  0  0  0
 27 28  1  0  0  0  0
 28 52  1  0  0  0  0
 30 28  2  0  0  0  0
 30 53  1  0  0  0  0
 31 30  1  0  0  0  0
 31 54  1  0  0  0  0
 32 26  2  0  0  0  0
 32 31  1  0  0  0  0
 32 55  1  0  0  0  0
 33  1  1  0  0  0  0
 34 33  1  0  0  0  0
 34 56  1  0  0  0  0
 34 57  1  0  0  0  0
 34 58  1  0  0  0  0
 35 36  1  0  0  0  0
 37 35  1  0  0  0  0
 37 44  2  0  0  0  0
 38 37  1  0  0  0  0
 38 59  1  0  0  0  0
 39 38  2  0  0  0  0
 39 41  1  0  0  0  0
 40 39  1  0  0  0  0
 41 43  2  0  0  0  0
 42 41  1  0  0  0  0
 43 44  1  0  0  0  0
 43 60  1  0  0  0  0
 44 61  1  0  0  0  0
M  END
>  <REMARK>
 VINA RESULT:      -7.8      3.767      5.266
  9 active torsions:
  status: ('A' for Active; 'I' for Inactive)
    1  A    between atoms: O_2  and  C_3 
    2  A    between atoms: C_4  and  O_5 
    3  A    between atoms: O_5  and  C_6 
    4  A    between atoms: C_6  and  C_7 
    5  A    between atoms: C_10  and  C_11 
    6  A    between atoms: C_11  and  S_12 
    7  A    between atoms: S_12  and  C_15 
    8  A    between atoms: C_32  and  N_33 
    9  A    between atoms: N_33  and  C_35 

>  <TORSDO>
F 9

$$$$
