resistance_project/docking/8faf60323ce63d5a/P00533_WT/docked/molecule_0010_out.pdbqt
 OpenBabel09142609553D

 63 67  0  0  1  0  0  0  0  0999 V2000
   -0.7370   50.7510  -18.2570 C   0  0  0  0  0  0  0  0  0  0  0  0
   -0.2390   50.6800  -16.9690 C   0  0  0  0  0  0  0  0  0  0  0  0
    0.9340   51.3440  -16.6350 C   0  0  0  0  0  0  0  0  0  0  0  0
    1.6480   52.0910  -17.5470 C   0  0  0  0  0  0  0  0  0  0  0  0
    1.1380   52.1530  -18.8350 C   0  0  0  0  0  0  0  0  0  0  0  0
   -0.0330   51.4960  -19.1820 C   0  0  0  0  0  0  0  0  0  0  0  0
    2.7830   52.7210  -17.1900 N   0  0  0  0  0  0  0  0  0  0  0  0
    3.2890   53.2660  -17.8870 H   0  0  0  0  0  0  0  0  0  0  0  0
    3.2680   52.6510  -15.9280 C   0  0  0  0  0  0  0  0  0  0  0  0
    2.5850   51.9260  -15.0260 N   0  0  0  0  0  0  0  0  0  0  0  0
    2.9420   51.8670  -14.0730 H   0  0  0  0  0  0  0  0  0  0  0  0
    1.4440   51.2770  -15.3330 C   0  0  2  0  0  0  0  0  0  0  0  0
   -0.5360   51.5710  -20.4940 O   0  0  0  0  0  0  0  0  0  0  0  0
   -0.2740   52.6420  -21.3440 C   0  0  0  0  0  0  0  0  0  0  0  0
    0.4670   52.2060  -22.5890 C   0  0  2  0  0  0  0  0  0  0  0  0
    0.9350   53.4210  -23.3570 C   0  0  0  0  0  0  0  0  0  0  0  0
    0.5980   53.3380  -24.7450 N   0  0  1  0  0  0  0  0  0  0  0  0
    1.5180   52.5700  -25.5450 C   0  0  0  0  0  0  0  0  0  0  0  0
   -0.7780   53.0460  -25.0210 C   0  0  1  0  0  0  0  0  0  0  0  0
    1.0770   51.1430  -25.7550 C   0  0  0  0  0  0  0  0  0  0  0  0
   -0.2650   51.0160  -26.0550 O   0  0  0  0  0  0  0  0  0  0  0  0
   -0.8310   52.2480  -26.3280 C   0  0  0  0  0  0  0  0  0  0  0  0
   -1.3340   52.1280  -23.9550 C   0  0  0  0  0  0  0  0  0  0  0  0
   -0.3190   51.3650  -23.3810 O   0  0  0  0  0  0  0  0  0  0  0  0
   -1.9090   50.0900  -18.5950 O   0  0  0  0  0  0  0  0  0  0  0  0
   -3.0610   50.3670  -17.8040 C   0  0  0  0  0  0  0  0  0  0  0  0
    0.7470   50.5140  -14.3330 N   0  0  0  0  0  0  0  0  0  0  0  0
    0.9640   49.5260  -14.2040 H   0  0  0  0  0  0  0  0  0  0  0  0
   -0.2460   51.1360  -13.5230 C   0  0  0  0  0  0  0  0  0  0  0  0
    0.0470   52.2370  -12.7250 C   0  0  0  0  0  0  0  0  0  0  0  0
   -0.9320   52.8400  -11.9340 C   0  0  0  0  0  0  0  0  0  0  0  0
   -0.5180   54.2290  -10.9410 Cl  0  0  0  0  0  0  0  0  0  0  0  0
   -2.2050   52.3110  -11.9680 C   0  0  0  0  0  0  0  0  0  0  0  0
   -3.5610   53.1320  -10.8860 Br  0  0  0  0  0  0  0  0  0  0  0  0
   -2.4910   51.2090  -12.7700 C   0  0  0  0  0  0  0  0  0  0  0  0
   -1.5170   50.6070  -13.5570 C   0  0  0  0  0  0  0  0  0  0  0  0
   -1.8420   49.5420  -14.3160 F   0  0  0  0  0  0  0  0  0  0  0  0
   -0.0765   49.6436  -16.7586 H   0  0  0  0  0  0  0  0  0  0  0  0
   -0.9810   51.1920  -16.3927 H   0  0  0  0  0  0  0  0  0  0  0  0
    0.9770   53.1894  -19.0466 H   0  0  0  0  0  0  0  0  0  0  0  0
    1.8758   51.6234  -19.4008 H   0  0  0  0  0  0  0  0  0  0  0  0
    3.3248   53.6518  -15.5537 H   0  0  0  0  0  0  0  0  0  0  0  0
    4.2012   52.1376  -16.0300 H   0  0  0  0  0  0  0  0  0  0  0  0
    1.8147   51.4617  -14.3464 H   0  0  0  0  0  0  0  0  0  0  0  0
   -1.2020   53.0896  -21.6327 H   0  0  0  0  0  0  0  0  0  0  0  0
    0.3435   53.3396  -20.8178 H   0  0  0  0  0  0  0  0  0  0  0  0
    1.3263   51.6390  -22.2974 H   0  0  0  0  0  0  0  0  0  0  0  0
    0.4737   54.2921  -22.9406 H   0  0  0  0  0  0  0  0  0  0  0  0
    2.0008   53.4731  -23.2773 H   0  0  0  0  0  0  0  0  0  0  0  0
    1.6118   53.0409  -26.5012 H   0  0  0  0  0  0  0  0  0  0  0  0
    2.4486   52.5402  -25.0178 H   0  0  0  0  0  0  0  0  0  0  0  0
   -1.3305   53.9613  -25.0649 H   0  0  0  0  0  0  0  0  0  0  0  0
    1.6444   50.7292  -26.5623 H   0  0  0  0  0  0  0  0  0  0  0  0
    1.2421   50.6254  -24.8332 H   0  0  0  0  0  0  0  0  0  0  0  0
   -1.8451   52.1271  -26.6472 H   0  0  0  0  0  0  0  0  0  0  0  0
   -0.3055   52.7517  -27.1123 H   0  0  0  0  0  0  0  0  0  0  0  0
   -2.0570   51.4746  -24.3969 H   0  0  0  0  0  0  0  0  0  0  0  0
   -1.7885   52.7243  -23.1916 H   0  0  0  0  0  0  0  0  0  0  0  0
   -3.8895   49.7963  -18.1684 H   0  0  0  0  0  0  0  0  0  0  0  0
   -3.2925   51.4099  -17.8640 H   0  0  0  0  0  0  0  0  0  0  0  0
   -2.8663   50.1029  -16.7856 H   0  0  0  0  0  0  0  0  0  0  0  0
    1.0071   52.6154  -12.7177 H   0  0  0  0  0  0  0  0  0  0  0  0
   -3.4508   50.8299  -12.7800 H   0  0  0  0  0  0  0  0  0  0  0  0
  1  2  1  0  0  0  0
  2  3  1  0  0  0  0
  2 38  1  0  0  0  0
  2 39  1  0  0  0  0
  3 12  1  0  0  0  0
  4  7  1  0  0  0  0
  4  3  2  0  0  0  0
  5  4  1  0  0  0  0
  5 40  1  0  0  0  0
  5 41  1  0  0  0  0
  6  5  1  0  0  0  0
  6  1  2  0  0  0  0
  7  9  1  0  0  0  0
  8  7  1  0  0  0  0
  9 10  1  0  0  0  0
  9 42  1  0  0  0  0
  9 43  1  0  0  0  0
 10 11  1  0  0  0  0
 12 10  1  0  0  0  0
 12 27  1  0  0  0  0
 12 44  1  1  0  0  0
 13  6  1  0  0  0  0
 14 13  1  0  0  0  0
 14 45  1  0  0  0  0
 14 46  1  0  0  0  0
 15 14  1  0  0  0  0
 15 47  1  1  0  0  0
 16 15  1  0  0  0  0
 16 48  1  0  0  0  0
 16 49  1  0  0  0  0
 17 19  1  1  0  0  0
 17 16  1  0  0  0  0
 18 17  1  0  0  0  0
 18 50  1  0  0  0  0
 18 51  1  0  0  0  0
 19 23  1  0  0  0  0
 19 52  1  6  0  0  0
 20 18  1  0  0  0  0
 20 53  1  0  0  0  0
 20 54  1  0  0  0  0
 21 20  1  0  0  0  0
 22 21  1  0  0  0  0
 22 19  1  0  0  0  0
 22 55  1  0  0  0  0
 22 56  1  0  0  0  0
 23 24  1  0  0  0  0
 23 57  1  0  0  0  0
 23 58  1  0  0  0  0
 24 15  1  0  0  0  0
 25  1  1  0  0  0  0
 25 26  1  0  0  0  0
 26 59  1  0  0  0  0
 26 60  1  0  0  0  0
 26 61  1  0  0  0  0
 27 28  1  0  0  0  0
 27 29  1  0  0  0  0
 29 30  1  0  0  0  0
 30 31  2  0  0  0  0
 30 62  1  0  0  0  0
 31 32  1  0  0  0  0
 33 31  1  0  0  0  0
 33 34  1  0  0  0  0
 35 33  2  0  0  0  0
 35 63  1  0  0  0  0
 36 29  2  0  0  0  0
 36 35  1  0  0  0  0
 37 36  1  0  0  0  0
M  END
>  <MODEL>
1

>  <REMARK>
 VINA RESULT:      -8.1      0.000      0.000
  6 active torsions:
  status: ('A' for Active; 'I' for Inactive)
    1  A    between atoms: O_2  and  C_3 
    2  A    between atoms: C_8  and  O_9 
    3  A    between atoms: O_9  and  C_10 
    4  A    between atoms: C_10  and  C_11 
    5  A    between atoms: C_26  and  N_27 
    6  A    between atoms: N_27  and  C_29 

>  <TORSDO>
F 6

$$$$
resistance_project/docking/8faf60323ce63d5a/P00533_WT/docked/molecule_0010_out.pdbqt
 OpenBabel09142609553D

 61 65  0  0  1  0  0  0  0  0999 V2000
   -0.4830   49.4040  -18.6710 C   0  0  0  0  0  0  0  0  0  0  0  0
   -0.3980   49.9860  -19.9220 C   0  0  0  0  0  0  0  0  0  0  0  0
    0.2700   51.1920  -20.0890 C   0  0  0  0  0  0  0  0  0  0  0  0
    0.8690   51.8590  -19.0410 C   0  0  0  0  0  0  0  0  0  0  0  0
    0.7750   51.2650  -17.7920 C   0  0  0  0  0  0  0  0  0  0  0  0
    0.1120   50.0600  -17.6120 C   0  0  0  0  0  0  0  0  0  0  0  0
    1.5080   53.0270  -19.2370 N   0  0  0  0  0  0  0  0  0  0  0  0
    1.9410   53.4970  -18.4430 H   0  0  0  0  0  0  0  0  0  0  0  0
    1.5910   53.5950  -20.4630 C   0  0  0  0  0  0  0  0  0  0  0  0
    1.0120   52.9590  -21.4970 N   0  0  0  0  0  0  0  0  0  0  0  0
    1.0690   53.3780  -22.4240 H   0  0  0  0  0  0  0  0  0  0  0  0
    0.3610   51.7880  -21.3530 C   0  0  0  0  0  0  0  0  0  0  0  0
    0.0270   49.4710  -16.3350 O   0  0  0  0  0  0  0  0  0  0  0  0
    0.1260   50.2060  -15.1570 C   0  0  0  0  0  0  0  0  0  0  0  0
   -0.8290   49.7020  -14.0970 C   0  0  2  0  0  0  0  0  0  0  0  0
   -2.2110   49.5450  -14.6880 C   0  0  0  0  0  0  0  0  0  0  0  0
   -3.2140   50.1570  -13.8720 N   0  0  1  0  0  0  0  0  0  0  0  0
   -3.6740   49.3480  -12.7710 C   0  0  0  0  0  0  0  0  0  0  0  0
   -2.9560   51.5200  -13.5090 C   0  0  1  0  0  0  0  0  0  0  0  0
   -2.9790   49.6630  -11.4710 C   0  0  0  0  0  0  0  0  0  0  0  0
   -2.8370   51.0160  -11.2320 O   0  0  0  0  0  0  0  0  0  0  0  0
   -3.5800   51.7590  -12.1310 C   0  0  0  0  0  0  0  0  0  0  0  0
   -1.4700   51.7320  -13.3310 C   0  0  0  0  0  0  0  0  0  0  0  0
   -0.8370   50.5400  -12.9790 O   0  0  0  0  0  0  0  0  0  0  0  0
   -1.1490   48.2000  -18.5000 O   0  0  0  0  0  0  0  0  0  0  0  0
   -2.4910   48.1280  -18.9720 C   0  0  0  0  0  0  0  0  0  0  0  0
   -0.2420   51.1430  -22.4880 N   0  0  0  0  0  0  0  0  0  0  0  0
   -0.7120   50.2450  -22.3740 H   0  0  0  0  0  0  0  0  0  0  0  0
   -0.1840   51.7560  -23.7730 C   0  0  0  0  0  0  0  0  0  0  0  0
    0.9580   51.6880  -24.5630 C   0  0  0  0  0  0  0  0  0  0  0  0
    1.0070   52.2910  -25.8210 C   0  0  0  0  0  0  0  0  0  0  0  0
    2.4710   52.1790  -26.7860 Cl  0  0  0  0  0  0  0  0  0  0  0  0
   -0.1150   52.9610  -26.2590 C   0  0  0  0  0  0  0  0  0  0  0  0
   -0.0620   53.7950  -27.9860 Br  0  0  0  0  0  0  0  0  0  0  0  0
   -1.2560   53.0250  -25.4620 C   0  0  0  0  0  0  0  0  0  0  0  0
   -1.3050   52.4260  -24.2090 C   0  0  0  0  0  0  0  0  0  0  0  0
   -2.4310   52.5150  -23.4750 F   0  0  0  0  0  0  0  0  0  0  0  0
    0.0855   49.2756  -20.5596 H   0  0  0  0  0  0  0  0  0  0  0  0
   -1.4142   50.2384  -20.1422 H   0  0  0  0  0  0  0  0  0  0  0  0
    1.2077   51.7295  -16.9783 H   0  0  0  0  0  0  0  0  0  0  0  0
    1.1427   54.5642  -20.3950 H   0  0  0  0  0  0  0  0  0  0  0  0
    2.6359   53.5797  -20.6929 H   0  0  0  0  0  0  0  0  0  0  0  0
   -0.1003   51.2303  -15.3680 H   0  0  0  0  0  0  0  0  0  0  0  0
    1.1229   50.1011  -14.7828 H   0  0  0  0  0  0  0  0  0  0  0  0
   -0.4946   48.7431  -13.7599 H   0  0  0  0  0  0  0  0  0  0  0  0
   -2.4305   48.5020  -14.7816 H   0  0  0  0  0  0  0  0  0  0  0  0
   -2.2199   50.0288  -15.6423 H   0  0  0  0  0  0  0  0  0  0  0  0
   -3.5001   48.3194  -13.0090 H   0  0  0  0  0  0  0  0  0  0  0  0
   -4.7141   49.5589  -12.6345 H   0  0  0  0  0  0  0  0  0  0  0  0
   -3.3476   52.1675  -14.2655 H   0  0  0  0  0  0  0  0  0  0  0  0
   -2.0055   49.2195  -11.4921 H   0  0  0  0  0  0  0  0  0  0  0  0
   -3.5897   49.2687  -10.6859 H   0  0  0  0  0  0  0  0  0  0  0  0
   -4.5998   51.4350  -12.1253 H   0  0  0  0  0  0  0  0  0  0  0  0
   -3.5713   52.7982  -11.8761 H   0  0  0  0  0  0  0  0  0  0  0  0
   -1.3091   52.4555  -12.5593 H   0  0  0  0  0  0  0  0  0  0  0  0
   -1.0600   52.0769  -14.2572 H   0  0  0  0  0  0  0  0  0  0  0  0
   -2.8850   47.1520  -18.7793 H   0  0  0  0  0  0  0  0  0  0  0  0
   -2.5096   48.3187  -20.0247 H   0  0  0  0  0  0  0  0  0  0  0  0
   -3.0866   48.8592  -18.4665 H   0  0  0  0  0  0  0  0  0  0  0  0
    1.7860   51.1816  -24.2124 H   0  0  0  0  0  0  0  0  0  0  0  0
   -2.0856   53.5299  -25.8109 H   0  0  0  0  0  0  0  0  0  0  0  0
  1 25  1  0  0  0  0
  1  6  2  0  0  0  0
  2  1  1  0  0  0  0
  2 38  1  0  0  0  0
  2 39  1  0  0  0  0
  3  2  1  0  0  0  0
  3  4  1  0  0  0  0
  4  5  2  0  0  0  0
  5  6  1  0  0  0  0
  5 40  1  0  0  0  0
  6 13  1  0  0  0  0
  7  4  1  0  0  0  0
  7  8  1  0  0  0  0
  9  7  1  0  0  0  0
  9 41  1  0  0  0  0
  9 42  1  0  0  0  0
 10 12  1  0  0  0  0
 10  9  1  0  0  0  0
 11 10  1  0  0  0  0
 12  3  2  0  0  0  0
 13 14  1  0  0  0  0
 14 15  1  0  0  0  0
 14 43  1  0  0  0  0
 14 44  1  0  0  0  0
 15 24  1  0  0  0  0
 15 45  1  1  0  0  0
 16 15  1  0  0  0  0
 16 17  1  0  0  0  0
 16 46  1  0  0  0  0
 16 47  1  0  0  0  0
 17 19  1  1  0  0  0
 17 18  1  0  0  0  0
 18 20  1  0  0  0  0
 18 48  1  0  0  0  0
 18 49  1  0  0  0  0
 19 23  1  0  0  0  0
 19 22  1  0  0  0  0
 19 50  1  6  0  0  0
 20 21  1  0  0  0  0
 20 51  1  0  0  0  0
 20 52  1  0  0  0  0
 22 21  1  0  0  0  0
 22 53  1  0  0  0  0
 22 54  1  0  0  0  0
 23 24  1  0  0  0  0
 23 55  1  0  0  0  0
 23 56  1  0  0  0  0
 26 25  1  0  0  0  0
 26 57  1  0  0  0  0
 26 58  1  0  0  0  0
 26 59  1  0  0  0  0
 27 28  1  0  0  0  0
 27 12  1  0  0  0  0
 29 27  1  0  0  0  0
 30 29  2  0  0  0  0
 30 60  1  0  0  0  0
 31 30  1  0  0  0  0
 32 31  1  0  0  0  0
 33 31  2  0  0  0  0
 33 35  1  0  0  0  0
 34 33  1  0  0  0  0
 35 36  2  0  0  0  0
 35 61  1  0  0  0  0
 36 29  1  0  0  0  0
 36 37  1  0  0  0  0
M  END
>  <REMARK>
 VINA RESULT:      -8.1      5.105     10.048
  6 active torsions:
  status: ('A' for Active; 'I' for Inactive)
    1  A    between atoms: O_2  and  C_3 
    2  A    between atoms: C_8  and  O_9 
    3  A    between atoms: O_9  and  C_10 
    4  A    between atoms: C_10  and  C_11 
    5  A    between atoms: C_26  and  N_27 
    6  A    between atoms: N_27  and  C_29 

>  <TORSDO>
F 6

$$$$
resistance_project/docking/8faf60323ce63d5a/P00533_WT/docked/molecule_0010_out.pdbqt
 OpenBabel09142609553D

 61 65  0  0  1  0  0  0  0  0999 V2000
    0.0390   49.8570  -16.7700 C   0  0  0  0  0  0  0  0  0  0  0  0
    0.0140   49.9750  -18.1470 C   0  0  0  0  0  0  0  0  0  0  0  0
    0.6330   51.0510  -18.7690 C   0  0  0  0  0  0  0  0  0  0  0  0
    1.2910   52.0360  -18.0630 C   0  0  0  0  0  0  0  0  0  0  0  0
    1.3080   51.9060  -16.6830 C   0  0  0  0  0  0  0  0  0  0  0  0
    0.6940   50.8360  -16.0500 C   0  0  0  0  0  0  0  0  0  0  0  0
    1.8810   53.0670  -18.6980 N   0  0  0  0  0  0  0  0  0  0  0  0
    2.3600   53.7800  -18.1490 H   0  0  0  0  0  0  0  0  0  0  0  0
    1.8560   53.1800  -20.0470 C   0  0  0  0  0  0  0  0  0  0  0  0
    1.2180   52.2280  -20.7500 N   0  0  0  0  0  0  0  0  0  0  0  0
    1.1930   52.3040  -21.7670 H   0  0  0  0  0  0  0  0  0  0  0  0
    0.6120   51.1770  -20.1630 C   0  0  0  0  0  0  0  0  0  0  0  0
    0.7220   50.7200  -14.6470 O   0  0  0  0  0  0  0  0  0  0  0  0
   -0.0440   51.5240  -13.8080 C   0  0  0  0  0  0  0  0  0  0  0  0
   -1.0440   50.7150  -13.0100 C   0  0  2  0  0  0  0  0  0  0  0  0
   -2.3390   50.6000  -13.7820 C   0  0  0  0  0  0  0  0  0  0  0  0
   -3.4730   50.9260  -12.9730 N   0  0  1  0  0  0  0  0  0  0  0  0
   -3.9550   49.8480  -12.1460 C   0  0  0  0  0  0  0  0  0  0  0  0
   -3.3890   52.1800  -12.2840 C   0  0  1  0  0  0  0  0  0  0  0  0
   -3.4270   49.8980  -10.7350 C   0  0  0  0  0  0  0  0  0  0  0  0
   -3.4450   51.1640  -10.1820 O   0  0  0  0  0  0  0  0  0  0  0  0
   -4.1670   52.0400  -10.9700 C   0  0  0  0  0  0  0  0  0  0  0  0
   -1.9560   52.4540  -11.8870 C   0  0  0  0  0  0  0  0  0  0  0  0
   -1.2460   51.2630  -11.7410 O   0  0  0  0  0  0  0  0  0  0  0  0
   -0.5790   48.7840  -16.1450 O   0  0  0  0  0  0  0  0  0  0  0  0
   -1.7950   48.3120  -16.7170 C   0  0  0  0  0  0  0  0  0  0  0  0
   -0.0570   50.1830  -20.9580 N   0  0  0  0  0  0  0  0  0  0  0  0
    0.3090   49.2310  -20.9960 H   0  0  0  0  0  0  0  0  0  0  0  0
   -1.2270   50.5240  -21.6940 C   0  0  0  0  0  0  0  0  0  0  0  0
   -1.1590   51.2520  -22.8780 C   0  0  0  0  0  0  0  0  0  0  0  0
   -2.3110   51.5830  -23.5930 C   0  0  0  0  0  0  0  0  0  0  0  0
   -2.1790   52.5030  -25.0830 Cl  0  0  0  0  0  0  0  0  0  0  0  0
   -3.5250   51.1640  -23.0900 C   0  0  0  0  0  0  0  0  0  0  0  0
   -5.1170   51.6110  -24.0630 Br  0  0  0  0  0  0  0  0  0  0  0  0
   -3.5850   50.4350  -21.9040 C   0  0  0  0  0  0  0  0  0  0  0  0
   -2.4390   50.1060  -21.1910 C   0  0  0  0  0  0  0  0  0  0  0  0
   -2.5480   49.4000  -20.0490 F   0  0  0  0  0  0  0  0  0  0  0  0
    0.4686   49.0896  -18.5398 H   0  0  0  0  0  0  0  0  0  0  0  0
   -1.0225   50.1358  -18.3582 H   0  0  0  0  0  0  0  0  0  0  0  0
    1.7880   52.6211  -16.1144 H   0  0  0  0  0  0  0  0  0  0  0  0
    1.3880   54.1138  -20.2791 H   0  0  0  0  0  0  0  0  0  0  0  0
    2.8805   53.0869  -20.3412 H   0  0  0  0  0  0  0  0  0  0  0  0
   -0.5732   52.2391  -14.4025 H   0  0  0  0  0  0  0  0  0  0  0  0
    0.6161   52.0083  -13.1191 H   0  0  0  0  0  0  0  0  0  0  0  0
   -0.6504   49.7313  -12.8604 H   0  0  0  0  0  0  0  0  0  0  0  0
   -2.4432   49.5953  -14.1350 H   0  0  0  0  0  0  0  0  0  0  0  0
   -2.3023   51.2931  -14.5963 H   0  0  0  0  0  0  0  0  0  0  0  0
   -3.6558   48.9207  -12.5881 H   0  0  0  0  0  0  0  0  0  0  0  0
   -5.0193   49.9426  -12.0900 H   0  0  0  0  0  0  0  0  0  0  0  0
   -3.7667   52.9565  -12.9159 H   0  0  0  0  0  0  0  0  0  0  0  0
   -2.4169   49.5451  -10.7391 H   0  0  0  0  0  0  0  0  0  0  0  0
   -4.0697   49.2856  -10.1377 H   0  0  0  0  0  0  0  0  0  0  0  0
   -5.1448   51.6486  -11.1585 H   0  0  0  0  0  0  0  0  0  0  0  0
   -4.2879   52.9873  -10.4873 H   0  0  0  0  0  0  0  0  0  0  0  0
   -1.9448   52.9851  -10.9582 H   0  0  0  0  0  0  0  0  0  0  0  0
   -1.4929   53.0372  -12.6553 H   0  0  0  0  0  0  0  0  0  0  0  0
   -2.1634   47.4882  -16.1421 H   0  0  0  0  0  0  0  0  0  0  0  0
   -1.6160   47.9934  -17.7227 H   0  0  0  0  0  0  0  0  0  0  0  0
   -2.5190   49.0998  -16.7160 H   0  0  0  0  0  0  0  0  0  0  0  0
   -0.2385   51.5531  -23.2344 H   0  0  0  0  0  0  0  0  0  0  0  0
   -4.5042   50.1317  -21.5461 H   0  0  0  0  0  0  0  0  0  0  0  0
  1 25  1  0  0  0  0
  1  6  2  0  0  0  0
  2  1  1  0  0  0  0
  2 38  1  0  0  0  0
  2 39  1  0  0  0  0
  3  2  1  0  0  0  0
  3  4  1  0  0  0  0
  4  5  2  0  0  0  0
  5  6  1  0  0  0  0
  5 40  1  0  0  0  0
  6 13  1  0  0  0  0
  7  8  1  0  0  0  0
  7  4  1  0  0  0  0
  9  7  1  0  0  0  0
  9 41  1  0  0  0  0
  9 42  1  0  0  0  0
 10 12  1  0  0  0  0
 10  9  1  0  0  0  0
 11 10  1  0  0  0  0
 12  3  2  0  0  0  0
 13 14  1  0  0  0  0
 14 15  1  0  0  0  0
 14 43  1  0  0  0  0
 14 44  1  0  0  0  0
 15 24  1  0  0  0  0
 15 45  1  1  0  0  0
 16 15  1  0  0  0  0
 16 17  1  0  0  0  0
 16 46  1  0  0  0  0
 16 47  1  0  0  0  0
 17 19  1  1  0  0  0
 17 18  1  0  0  0  0
 18 20  1  0  0  0  0
 18 48  1  0  0  0  0
 18 49  1  0  0  0  0
 19 23  1  0  0  0  0
 19 22  1  0  0  0  0
 19 50  1  6  0  0  0
 20 21  1  0  0  0  0
 20 51  1  0  0  0  0
 20 52  1  0  0  0  0
 22 21  1  0  0  0  0
 22 53  1  0  0  0  0
 22 54  1  0  0  0  0
 23 24  1  0  0  0  0
 23 55  1  0  0  0  0
 23 56  1  0  0  0  0
 26 25  1  0  0  0  0
 26 57  1  0  0  0  0
 26 58  1  0  0  0  0
 26 59  1  0  0  0  0
 27 12  1  0  0  0  0
 28 27  1  0  0  0  0
 29 36  1  0  0  0  0
 29 27  1  0  0  0  0
 30 29  2  0  0  0  0
 30 60  1  0  0  0  0
 31 33  2  0  0  0  0
 31 30  1  0  0  0  0
 32 31  1  0  0  0  0
 33 35  1  0  0  0  0
 34 33  1  0  0  0  0
 35 36  2  0  0  0  0
 35 61  1  0  0  0  0
 36 37  1  0  0  0  0
M  END
>  <REMARK>
 VINA RESULT:      -7.9      4.726      9.484
  6 active torsions:
  status: ('A' for Active; 'I' for Inactive)
    1  A    between atoms: O_2  and  C_3 
    2  A    between atoms: C_8  and  O_9 
    3  A    between atoms: O_9  and  C_10 
    4  A    between atoms: C_10  and  C_11 
    5  A    between atoms: C_26  and  N_27 
    6  A    between atoms: N_27  and  C_29 

>  <TORSDO>
F 6

$$$$
resistance_project/docking/8faf60323ce63d5a/P00533_WT/docked/molecule_0010_out.pdbqt
 OpenBabel09142609553D

 63 67  0  0  1  0  0  0  0  0999 V2000
   -0.8030   50.0640  -19.1970 C   0  0  0  0  0  0  0  0  0  0  0  0
   -0.5480   50.1540  -17.8410 C   0  0  0  0  0  0  0  0  0  0  0  0
    0.4520   50.9950  -17.3710 C   0  0  0  0  0  0  0  0  0  0  0  0
    1.2250   51.7680  -18.2120 C   0  0  0  0  0  0  0  0  0  0  0  0
    0.9590   51.6680  -19.5680 C   0  0  0  0  0  0  0  0  0  0  0  0
   -0.0380   50.8320  -20.0510 C   0  0  0  0  0  0  0  0  0  0  0  0
    2.1870   52.5720  -17.7230 N   0  0  0  0  0  0  0  0  0  0  0  0
    2.7430   53.1320  -18.3690 H   0  0  0  0  0  0  0  0  0  0  0  0
    2.4360   52.6590  -16.3950 C   0  0  0  0  0  0  0  0  0  0  0  0
    1.6910   51.9120  -15.5610 N   0  0  0  0  0  0  0  0  0  0  0  0
    1.8700   51.9690  -14.5590 H   0  0  0  0  0  0  0  0  0  0  0  0
    0.7170   51.0910  -16.0000 C   0  0  1  0  0  0  0  0  0  0  0  0
   -0.2940   50.7440  -21.4320 O   0  0  0  0  0  0  0  0  0  0  0  0
   -0.7130   51.8320  -22.1930 C   0  0  0  0  0  0  0  0  0  0  0  0
   -2.1070   51.6280  -22.7460 C   0  0  2  0  0  0  0  0  0  0  0  0
   -2.3430   50.1580  -23.0070 C   0  0  0  0  0  0  0  0  0  0  0  0
   -2.8770   49.9270  -24.3140 N   0  0  1  0  0  0  0  0  0  0  0  0
   -4.3040   50.1000  -24.4220 C   0  0  0  0  0  0  0  0  0  0  0  0
   -2.1460   50.5340  -25.3870 C   0  0  1  0  0  0  0  0  0  0  0  0
   -4.7020   51.4630  -24.9290 C   0  0  0  0  0  0  0  0  0  0  0  0
   -3.9390   51.9040  -25.9920 O   0  0  0  0  0  0  0  0  0  0  0  0
   -3.1490   50.8850  -26.4920 C   0  0  0  0  0  0  0  0  0  0  0  0
   -1.5600   51.8510  -24.9300 C   0  0  0  0  0  0  0  0  0  0  0  0
   -2.3160   52.3970  -23.8940 O   0  0  0  0  0  0  0  0  0  0  0  0
   -1.8010   49.2250  -19.6700 O   0  0  0  0  0  0  0  0  0  0  0  0
   -1.4770   47.8450  -19.8090 C   0  0  0  0  0  0  0  0  0  0  0  0
   -0.0550   50.3110  -15.0690 N   0  0  0  0  0  0  0  0  0  0  0  0
    0.0450   49.2960  -15.0510 H   0  0  0  0  0  0  0  0  0  0  0  0
   -0.9570   50.9540  -14.1740 C   0  0  0  0  0  0  0  0  0  0  0  0
   -0.5040   51.6910  -13.0860 C   0  0  0  0  0  0  0  0  0  0  0  0
   -1.3950   52.3180  -12.2130 C   0  0  0  0  0  0  0  0  0  0  0  0
   -0.7790   53.2400  -10.8500 Cl  0  0  0  0  0  0  0  0  0  0  0  0
   -2.7450   52.1830  -12.4630 C   0  0  0  0  0  0  0  0  0  0  0  0
   -3.9810   53.0400  -11.2710 Br  0  0  0  0  0  0  0  0  0  0  0  0
   -3.1910   51.4440  -13.5550 C   0  0  0  0  0  0  0  0  0  0  0  0
   -2.3050   50.8190  -14.4240 C   0  0  0  0  0  0  0  0  0  0  0  0
   -2.7840   50.1140  -15.4670 F   0  0  0  0  0  0  0  0  0  0  0  0
   -0.3018   49.1673  -17.5082 H   0  0  0  0  0  0  0  0  0  0  0  0
   -1.4412   50.5990  -17.4548 H   0  0  0  0  0  0  0  0  0  0  0  0
    0.7134   52.6547  -19.9012 H   0  0  0  0  0  0  0  0  0  0  0  0
    1.8484   51.2068  -19.9438 H   0  0  0  0  0  0  0  0  0  0  0  0
    2.3001   53.6821  -16.1125 H   0  0  0  0  0  0  0  0  0  0  0  0
    3.4278   52.2732  -16.2841 H   0  0  0  0  0  0  0  0  0  0  0  0
    1.1286   51.2692  -15.0285 H   0  0  0  0  0  0  0  0  0  0  0  0
   -0.7093   52.7072  -21.5774 H   0  0  0  0  0  0  0  0  0  0  0  0
   -0.0404   51.9393  -23.0182 H   0  0  0  0  0  0  0  0  0  0  0  0
   -2.8184   51.9603  -22.0191 H   0  0  0  0  0  0  0  0  0  0  0  0
   -1.4129   49.6369  -22.9163 H   0  0  0  0  0  0  0  0  0  0  0  0
   -3.0549   49.8043  -22.2908 H   0  0  0  0  0  0  0  0  0  0  0  0
   -4.6857   49.3619  -25.0962 H   0  0  0  0  0  0  0  0  0  0  0  0
   -4.7116   49.9960  -23.4381 H   0  0  0  0  0  0  0  0  0  0  0  0
   -1.3775   49.8649  -25.7136 H   0  0  0  0  0  0  0  0  0  0  0  0
   -5.7246   51.4220  -25.2411 H   0  0  0  0  0  0  0  0  0  0  0  0
   -4.5479   52.1529  -24.1258 H   0  0  0  0  0  0  0  0  0  0  0  0
   -2.6328   51.2135  -27.3698 H   0  0  0  0  0  0  0  0  0  0  0  0
   -3.7387   50.0350  -26.7652 H   0  0  0  0  0  0  0  0  0  0  0  0
   -1.5484   52.5342  -25.7534 H   0  0  0  0  0  0  0  0  0  0  0  0
   -0.5656   51.6786  -24.5746 H   0  0  0  0  0  0  0  0  0  0  0  0
   -2.3288   47.3142  -20.1799 H   0  0  0  0  0  0  0  0  0  0  0  0
   -1.1957   47.4470  -18.8564 H   0  0  0  0  0  0  0  0  0  0  0  0
   -0.6630   47.7371  -20.4951 H   0  0  0  0  0  0  0  0  0  0  0  0
    0.5110   51.7764  -12.9203 H   0  0  0  0  0  0  0  0  0  0  0  0
   -4.2055   51.3581  -13.7235 H   0  0  0  0  0  0  0  0  0  0  0  0
  1  2  1  0  0  0  0
  2  3  1  0  0  0  0
  2 38  1  0  0  0  0
  2 39  1  0  0  0  0
  3 12  1  0  0  0  0
  4  7  1  0  0  0  0
  4  3  2  0  0  0  0
  5  4  1  0  0  0  0
  5 40  1  0  0  0  0
  5 41  1  0  0  0  0
  6  5  1  0  0  0  0
  6  1  2  0  0  0  0
  7  9  1  0  0  0  0
  8  7  1  0  0  0  0
  9 10  1  0  0  0  0
  9 42  1  0  0  0  0
  9 43  1  0  0  0  0
 10 11  1  0  0  0  0
 12 10  1  0  0  0  0
 12 27  1  0  0  0  0
 12 44  1  6  0  0  0
 13  6  1  0  0  0  0
 14 13  1  0  0  0  0
 14 45  1  0  0  0  0
 14 46  1  0  0  0  0
 15 14  1  0  0  0  0
 15 47  1  1  0  0  0
 16 15  1  0  0  0  0
 16 48  1  0  0  0  0
 16 49  1  0  0  0  0
 17 19  1  6  0  0  0
 17 16  1  0  0  0  0
 18 17  1  0  0  0  0
 18 50  1  0  0  0  0
 18 51  1  0  0  0  0
 19 23  1  0  0  0  0
 19 52  1  6  0  0  0
 20 18  1  0  0  0  0
 20 53  1  0  0  0  0
 20 54  1  0  0  0  0
 21 20  1  0  0  0  0
 22 21  1  0  0  0  0
 22 19  1  0  0  0  0
 22 55  1  0  0  0  0
 22 56  1  0  0  0  0
 23 24  1  0  0  0  0
 23 57  1  0  0  0  0
 23 58  1  0  0  0  0
 24 15  1  0  0  0  0
 25  1  1  0  0  0  0
 26 25  1  0  0  0  0
 26 59  1  0  0  0  0
 26 60  1  0  0  0  0
 26 61  1  0  0  0  0
 27 28  1  0  0  0  0
 27 29  1  0  0  0  0
 29 30  1  0  0  0  0
 30 31  2  0  0  0  0
 30 62  1  0  0  0  0
 31 32  1  0  0  0  0
 33 31  1  0  0  0  0
 33 34  1  0  0  0  0
 35 33  2  0  0  0  0
 35 63  1  0  0  0  0
 36 29  2  0  0  0  0
 36 35  1  0  0  0  0
 37 36  1  0  0  0  0
M  END
>  <REMARK>
 VINA RESULT:      -7.8      1.927      2.440
  6 active torsions:
  status: ('A' for Active; 'I' for Inactive)
    1  A    between atoms: O_2  and  C_3 
    2  A    between atoms: C_8  and  O_9 
    3  A    between atoms: O_9  and  C_10 
    4  A    between atoms: C_10  and  C_11 
    5  A    between atoms: C_26  and  N_27 
    6  A    between atoms: N_27  and  C_29 

>  <TORSDO>
F 6

$$$$
resistance_project/docking/8faf60323ce63d5a/P00533_WT/docked/molecule_0010_out.pdbqt
 OpenBabel09142609553D

 63 67  0  0  1  0  0  0  0  0999 V2000
   -0.8890   50.2870  -18.0480 C   0  0  0  0  0  0  0  0  0  0  0  0
   -0.3380   50.3640  -16.7820 C   0  0  0  0  0  0  0  0  0  0  0  0
    0.7950   51.1350  -16.5580 C   0  0  0  0  0  0  0  0  0  0  0  0
    1.4160   51.8490  -17.5610 C   0  0  0  0  0  0  0  0  0  0  0  0
    0.8540   51.7630  -18.8250 C   0  0  0  0  0  0  0  0  0  0  0  0
   -0.2790   50.9970  -19.0620 C   0  0  0  0  0  0  0  0  0  0  0  0
    2.5140   52.5860  -17.3080 N   0  0  0  0  0  0  0  0  0  0  0  0
    2.9510   53.1030  -18.0710 H   0  0  0  0  0  0  0  0  0  0  0  0
    3.0510   52.6600  -16.0680 C   0  0  0  0  0  0  0  0  0  0  0  0
    2.4590   51.9700  -15.0790 N   0  0  0  0  0  0  0  0  0  0  0  0
    2.8560   52.0180  -14.1410 H   0  0  0  0  0  0  0  0  0  0  0  0
    1.3590   51.2170  -15.2790 C   0  0  1  0  0  0  0  0  0  0  0  0
   -0.8360   50.9220  -20.3530 O   0  0  0  0  0  0  0  0  0  0  0  0
   -0.5290   51.8300  -21.3620 C   0  0  0  0  0  0  0  0  0  0  0  0
   -0.6700   51.2130  -22.7370 C   0  0  2  0  0  0  0  0  0  0  0  0
   -0.4550   52.2710  -23.7950 C   0  0  0  0  0  0  0  0  0  0  0  0
   -1.4900   52.2560  -24.7830 N   0  0  1  0  0  0  0  0  0  0  0  0
   -1.3120   51.2800  -25.8290 C   0  0  0  0  0  0  0  0  0  0  0  0
   -2.8260   52.3020  -24.2670 C   0  0  1  0  0  0  0  0  0  0  0  0
   -2.0690   49.9990  -25.5820 C   0  0  0  0  0  0  0  0  0  0  0  0
   -3.3580   50.1960  -25.1260 O   0  0  0  0  0  0  0  0  0  0  0  0
   -3.7250   51.5250  -25.2350 C   0  0  0  0  0  0  0  0  0  0  0  0
   -2.8960   51.5570  -22.9530 C   0  0  0  0  0  0  0  0  0  0  0  0
   -1.9060   50.5780  -22.8850 O   0  0  0  0  0  0  0  0  0  0  0  0
   -2.0200   49.5180  -18.2770 O   0  0  0  0  0  0  0  0  0  0  0  0
   -3.2810   50.1230  -18.0060 C   0  0  0  0  0  0  0  0  0  0  0  0
    0.7590   50.4970  -14.1880 N   0  0  0  0  0  0  0  0  0  0  0  0
    1.0640   49.5470  -13.9770 H   0  0  0  0  0  0  0  0  0  0  0  0
   -0.2600   51.1070  -13.4030 C   0  0  0  0  0  0  0  0  0  0  0  0
   -0.0200   52.2590  -12.6610 C   0  0  0  0  0  0  0  0  0  0  0  0
   -1.0240   52.8500  -11.8940 C   0  0  0  0  0  0  0  0  0  0  0  0
   -0.6760   54.3050  -10.9720 Cl  0  0  0  0  0  0  0  0  0  0  0  0
   -2.2690   52.2570  -11.8930 C   0  0  0  0  0  0  0  0  0  0  0  0
   -3.6600   53.0610  -10.8440 Br  0  0  0  0  0  0  0  0  0  0  0  0
   -2.5030   51.1040  -12.6390 C   0  0  0  0  0  0  0  0  0  0  0  0
   -1.5030   50.5140  -13.4020 C   0  0  0  0  0  0  0  0  0  0  0  0
   -1.7770   49.3990  -14.1070 F   0  0  0  0  0  0  0  0  0  0  0  0
   -0.0919   49.3638  -16.4921 H   0  0  0  0  0  0  0  0  0  0  0  0
   -1.0929   50.8714  -16.2185 H   0  0  0  0  0  0  0  0  0  0  0  0
    0.6090   52.7632  -19.1156 H   0  0  0  0  0  0  0  0  0  0  0  0
    1.6064   51.2397  -19.3773 H   0  0  0  0  0  0  0  0  0  0  0  0
    3.0481   53.6910  -15.7817 H   0  0  0  0  0  0  0  0  0  0  0  0
    4.0150   52.2065  -16.1683 H   0  0  0  0  0  0  0  0  0  0  0  0
    1.9084   51.2923  -14.3639 H   0  0  0  0  0  0  0  0  0  0  0  0
   -1.1921   52.6666  -21.2883 H   0  0  0  0  0  0  0  0  0  0  0  0
    0.4894   52.1336  -21.2370 H   0  0  0  0  0  0  0  0  0  0  0  0
    0.0796   50.4587  -22.8554 H   0  0  0  0  0  0  0  0  0  0  0  0
   -0.4395   53.2321  -23.3249 H   0  0  0  0  0  0  0  0  0  0  0  0
    0.4739   52.0660  -24.2849 H   0  0  0  0  0  0  0  0  0  0  0  0
   -1.6522   51.7036  -26.7508 H   0  0  0  0  0  0  0  0  0  0  0  0
   -0.2713   51.0333  -25.8597 H   0  0  0  0  0  0  0  0  0  0  0  0
   -3.1224   53.3229  -24.1456 H   0  0  0  0  0  0  0  0  0  0  0  0
   -1.5359   49.4268  -24.8518 H   0  0  0  0  0  0  0  0  0  0  0  0
   -2.1432   49.4929  -26.5218 H   0  0  0  0  0  0  0  0  0  0  0  0
   -4.7531   51.6485  -24.9654 H   0  0  0  0  0  0  0  0  0  0  0  0
   -3.6114   51.8781  -26.2387 H   0  0  0  0  0  0  0  0  0  0  0  0
   -3.8556   51.0921  -22.8642 H   0  0  0  0  0  0  0  0  0  0  0  0
   -2.7441   52.2539  -22.1554 H   0  0  0  0  0  0  0  0  0  0  0  0
   -4.0644   49.4273  -18.2233 H   0  0  0  0  0  0  0  0  0  0  0  0
   -3.3975   50.9937  -18.6170 H   0  0  0  0  0  0  0  0  0  0  0  0
   -3.3282   50.4024  -16.9742 H   0  0  0  0  0  0  0  0  0  0  0  0
    0.9198   52.6849  -12.6784 H   0  0  0  0  0  0  0  0  0  0  0  0
   -3.4426   50.6775  -12.6245 H   0  0  0  0  0  0  0  0  0  0  0  0
  1  2  1  0  0  0  0
  2  3  1  0  0  0  0
  2 38  1  0  0  0  0
  2 39  1  0  0  0  0
  3 12  1  0  0  0  0
  4  7  1  0  0  0  0
  4  3  2  0  0  0  0
  5  4  1  0  0  0  0
  5 40  1  0  0  0  0
  5 41  1  0  0  0  0
  6  5  1  0  0  0  0
  6  1  2  0  0  0  0
  7  9  1  0  0  0  0
  8  7  1  0  0  0  0
  9 10  1  0  0  0  0
  9 42  1  0  0  0  0
  9 43  1  0  0  0  0
 10 11  1  0  0  0  0
 12 10  1  0  0  0  0
 12 27  1  0  0  0  0
 12 44  1  6  0  0  0
 13  6  1  0  0  0  0
 14 13  1  0  0  0  0
 14 45  1  0  0  0  0
 14 46  1  0  0  0  0
 15 14  1  0  0  0  0
 15 47  1  6  0  0  0
 16 15  1  0  0  0  0
 16 48  1  0  0  0  0
 16 49  1  0  0  0  0
 17 19  1  1  0  0  0
 17 16  1  0  0  0  0
 18 20  1  0  0  0  0
 18 17  1  0  0  0  0
 18 50  1  0  0  0  0
 18 51  1  0  0  0  0
 19 23  1  0  0  0  0
 19 52  1  1  0  0  0
 20 21  1  0  0  0  0
 20 53  1  0  0  0  0
 20 54  1  0  0  0  0
 22 21  1  0  0  0  0
 22 19  1  0  0  0  0
 22 55  1  0  0  0  0
 22 56  1  0  0  0  0
 23 24  1  0  0  0  0
 23 57  1  0  0  0  0
 23 58  1  0  0  0  0
 24 15  1  0  0  0  0
 25  1  1  0  0  0  0
 25 26  1  0  0  0  0
 26 59  1  0  0  0  0
 26 60  1  0  0  0  0
 26 61  1  0  0  0  0
 27 28  1  0  0  0  0
 27 29  1  0  0  0  0
 29 36  2  0  0  0  0
 29 30  1  0  0  0  0
 30 31  2  0  0  0  0
 30 62  1  0  0  0  0
 31 33  1  0  0  0  0
 31 32  1  0  0  0  0
 33 34  1  0  0  0  0
 35 33  2  0  0  0  0
 35 63  1  0  0  0  0
 36 35  1  0  0  0  0
 37 36  1  0  0  0  0
M  END
>  <REMARK>
 VINA RESULT:      -7.7      1.201      1.429
  6 active torsions:
  status: ('A' for Active; 'I' for Inactive)
    1  A    between atoms: O_2  and  C_3 
    2  A    between atoms: C_8  and  O_9 
    3  A    between atoms: O_9  and  C_10 
    4  A    between atoms: C_10  and  C_11 
    5  A    between atoms: C_26  and  N_27 
    6  A    between atoms: N_27  and  C_29 

>  <TORSDO>
F 6

$$$$
resistance_project/docking/8faf60323ce63d5a/P00533_WT/docked/molecule_0010_out.pdbqt
 OpenBabel09142609553D

 61 65  0  0  1  0  0  0  0  0999 V2000
    1.0730   51.4580  -16.7580 C   0  0  0  0  0  0  0  0  0  0  0  0
    0.4010   51.5750  -17.9610 C   0  0  0  0  0  0  0  0  0  0  0  0
   -0.3100   50.4980  -18.4720 C   0  0  0  0  0  0  0  0  0  0  0  0
   -0.3840   49.2830  -17.8230 C   0  0  0  0  0  0  0  0  0  0  0  0
    0.2940   49.1800  -16.6190 C   0  0  0  0  0  0  0  0  0  0  0  0
    1.0080   50.2490  -16.0960 C   0  0  0  0  0  0  0  0  0  0  0  0
   -1.0820   48.2590  -18.3480 N   0  0  0  0  0  0  0  0  0  0  0  0
   -1.1180   47.3730  -17.8450 H   0  0  0  0  0  0  0  0  0  0  0  0
   -1.7390   48.3750  -19.5260 C   0  0  0  0  0  0  0  0  0  0  0  0
   -1.6780   49.5520  -20.1720 N   0  0  0  0  0  0  0  0  0  0  0  0
   -2.1690   49.6500  -21.0600 H   0  0  0  0  0  0  0  0  0  0  0  0
   -0.9920   50.6080  -19.6900 C   0  0  0  0  0  0  0  0  0  0  0  0
    1.6900   50.1250  -14.8710 O   0  0  0  0  0  0  0  0  0  0  0  0
    1.1650   50.5790  -13.6650 C   0  0  0  0  0  0  0  0  0  0  0  0
   -0.3470   50.5270  -13.6540 C   0  0  2  0  0  0  0  0  0  0  0  0
   -0.9040   51.9100  -13.4060 C   0  0  0  0  0  0  0  0  0  0  0  0
   -1.8980   51.9100  -12.3770 N   0  0  1  0  0  0  0  0  0  0  0  0
   -3.2200   51.5360  -12.8140 C   0  0  0  0  0  0  0  0  0  0  0  0
   -1.5040   51.2800  -11.1500 C   0  0  1  0  0  0  0  0  0  0  0  0
   -3.5360   50.0810  -12.5770 C   0  0  0  0  0  0  0  0  0  0  0  0
   -3.1370   49.6210  -11.3370 O   0  0  0  0  0  0  0  0  0  0  0  0
   -2.7590   50.6690  -10.5180 C   0  0  0  0  0  0  0  0  0  0  0  0
   -0.5820   50.1180  -11.4410 C   0  0  0  0  0  0  0  0  0  0  0  0
   -0.8180   49.6050  -12.7150 O   0  0  0  0  0  0  0  0  0  0  0  0
    1.7840   52.5320  -16.2430 O   0  0  0  0  0  0  0  0  0  0  0  0
    3.1450   52.6600  -16.6440 C   0  0  0  0  0  0  0  0  0  0  0  0
   -0.9560   51.8480  -20.4170 N   0  0  0  0  0  0  0  0  0  0  0  0
   -1.2670   52.7100  -19.9680 H   0  0  0  0  0  0  0  0  0  0  0  0
   -0.4890   51.8760  -21.7620 C   0  0  0  0  0  0  0  0  0  0  0  0
   -1.3050   51.5050  -22.8260 C   0  0  0  0  0  0  0  0  0  0  0  0
   -0.8400   51.5350  -24.1410 C   0  0  0  0  0  0  0  0  0  0  0  0
   -1.9050   51.0580  -25.4540 Cl  0  0  0  0  0  0  0  0  0  0  0  0
    0.4590   51.9440  -24.3570 C   0  0  0  0  0  0  0  0  0  0  0  0
    1.1110   51.9910  -26.1610 Br  0  0  0  0  0  0  0  0  0  0  0  0
    1.2700   52.3140  -23.2870 C   0  0  0  0  0  0  0  0  0  0  0  0
    0.8080   52.2850  -21.9760 C   0  0  0  0  0  0  0  0  0  0  0  0
    1.6300   52.6510  -20.9740 F   0  0  0  0  0  0  0  0  0  0  0  0
   -0.2967   52.3782  -17.8470 H   0  0  0  0  0  0  0  0  0  0  0  0
    1.1919   51.7031  -18.6702 H   0  0  0  0  0  0  0  0  0  0  0  0
    0.2675   48.2886  -16.0996 H   0  0  0  0  0  0  0  0  0  0  0  0
   -1.3438   47.6302  -20.1848 H   0  0  0  0  0  0  0  0  0  0  0  0
   -2.7714   48.2672  -19.2665 H   0  0  0  0  0  0  0  0  0  0  0  0
    1.4777   51.5905  -13.5103 H   0  0  0  0  0  0  0  0  0  0  0  0
    1.5249   49.9410  -12.8850 H   0  0  0  0  0  0  0  0  0  0  0  0
   -0.6867   50.1921  -14.6118 H   0  0  0  0  0  0  0  0  0  0  0  0
   -1.3438   52.2729  -14.3114 H   0  0  0  0  0  0  0  0  0  0  0  0
   -0.0988   52.5389  -13.0882 H   0  0  0  0  0  0  0  0  0  0  0  0
   -3.9342   52.1298  -12.2827 H   0  0  0  0  0  0  0  0  0  0  0  0
   -3.2641   51.7024  -13.8701 H   0  0  0  0  0  0  0  0  0  0  0  0
   -1.0251   52.0010  -10.5210 H   0  0  0  0  0  0  0  0  0  0  0  0
   -3.0410   49.5012  -13.3278 H   0  0  0  0  0  0  0  0  0  0  0  0
   -4.6005   49.9811  -12.6199 H   0  0  0  0  0  0  0  0  0  0  0  0
   -2.5406   50.3097   -9.5341 H   0  0  0  0  0  0  0  0  0  0  0  0
   -3.5411   51.3938  -10.4291 H   0  0  0  0  0  0  0  0  0  0  0  0
    0.4328   50.4517  -11.3798 H   0  0  0  0  0  0  0  0  0  0  0  0
   -0.7650   49.3471  -10.7219 H   0  0  0  0  0  0  0  0  0  0  0  0
    3.5742   53.5227  -16.1789 H   0  0  0  0  0  0  0  0  0  0  0  0
    3.1950   52.7661  -17.7075 H   0  0  0  0  0  0  0  0  0  0  0  0
    3.6880   51.7872  -16.3468 H   0  0  0  0  0  0  0  0  0  0  0  0
   -2.2735   51.2016  -22.6388 H   0  0  0  0  0  0  0  0  0  0  0  0
    2.2389   52.6175  -23.4720 H   0  0  0  0  0  0  0  0  0  0  0  0
  1 25  1  0  0  0  0
  1  6  2  0  0  0  0
  2  1  1  0  0  0  0
  2 38  1  0  0  0  0
  2 39  1  0  0  0  0
  3  2  1  0  0  0  0
  3  4  1  0  0  0  0
  4  5  2  0  0  0  0
  5  6  1  0  0  0  0
  5 40  1  0  0  0  0
  6 13  1  0  0  0  0
  7  8  1  0  0  0  0
  7  4  1  0  0  0  0
  9  7  1  0  0  0  0
  9 41  1  0  0  0  0
  9 42  1  0  0  0  0
 10 12  1  0  0  0  0
 10  9  1  0  0  0  0
 11 10  1  0  0  0  0
 12  3  2  0  0  0  0
 13 14  1  0  0  0  0
 14 15  1  0  0  0  0
 14 43  1  0  0  0  0
 14 44  1  0  0  0  0
 15 16  1  0  0  0  0
 15 24  1  0  0  0  0
 15 45  1  6  0  0  0
 16 17  1  0  0  0  0
 16 46  1  0  0  0  0
 16 47  1  0  0  0  0
 17 19  1  1  0  0  0
 18 20  1  0  0  0  0
 18 17  1  0  0  0  0
 18 48  1  0  0  0  0
 18 49  1  0  0  0  0
 19 22  1  0  0  0  0
 19 50  1  1  0  0  0
 20 21  1  0  0  0  0
 20 51  1  0  0  0  0
 20 52  1  0  0  0  0
 21 22  1  0  0  0  0
 22 53  1  0  0  0  0
 22 54  1  0  0  0  0
 23 19  1  0  0  0  0
 23 55  1  0  0  0  0
 23 56  1  0  0  0  0
 24 23  1  0  0  0  0
 26 25  1  0  0  0  0
 26 57  1  0  0  0  0
 26 58  1  0  0  0  0
 26 59  1  0  0  0  0
 27 28  1  0  0  0  0
 27 12  1  0  0  0  0
 29 27  1  0  0  0  0
 30 29  2  0  0  0  0
 30 60  1  0  0  0  0
 31 30  1  0  0  0  0
 32 31  1  0  0  0  0
 33 31  2  0  0  0  0
 33 35  1  0  0  0  0
 34 33  1  0  0  0  0
 35 36  2  0  0  0  0
 35 61  1  0  0  0  0
 36 29  1  0  0  0  0
 36 37  1  0  0  0  0
M  END
>  <REMARK>
 VINA RESULT:      -7.5      5.106      9.940
  6 active torsions:
  status: ('A' for Active; 'I' for Inactive)
    1  A    between atoms: O_2  and  C_3 
    2  A    between atoms: C_8  and  O_9 
    3  A    between atoms: O_9  and  C_10 
    4  A    between atoms: C_10  and  C_11 
    5  A    between atoms: C_26  and  N_27 
    6  A    between atoms: N_27  and  C_29 

>  <TORSDO>
F 6

$$$$
resistance_project/docking/8faf60323ce63d5a/P00533_WT/docked/molecule_0010_out.pdbqt
 OpenBabel09142609553D

 61 65  0  0  1  0  0  0  0  0999 V2000
    0.4000   50.1130  -17.7490 C   0  0  0  0  0  0  0  0  0  0  0  0
    0.1960   50.2470  -19.1100 C   0  0  0  0  0  0  0  0  0  0  0  0
    0.5510   51.4230  -19.7580 C   0  0  0  0  0  0  0  0  0  0  0  0
    1.1140   52.4930  -19.0960 C   0  0  0  0  0  0  0  0  0  0  0  0
    1.3120   52.3460  -17.7320 C   0  0  0  0  0  0  0  0  0  0  0  0
    0.9630   51.1760  -17.0720 C   0  0  0  0  0  0  0  0  0  0  0  0
    1.4460   53.6190  -19.7550 N   0  0  0  0  0  0  0  0  0  0  0  0
    1.8600   54.3940  -19.2380 H   0  0  0  0  0  0  0  0  0  0  0  0
    1.2460   53.7480  -21.0880 C   0  0  0  0  0  0  0  0  0  0  0  0
    0.6980   52.7140  -21.7490 N   0  0  0  0  0  0  0  0  0  0  0  0
    0.5420   52.8010  -22.7530 H   0  0  0  0  0  0  0  0  0  0  0  0
    0.3470   51.5660  -21.1360 C   0  0  0  0  0  0  0  0  0  0  0  0
    1.1720   51.0450  -15.6860 O   0  0  0  0  0  0  0  0  0  0  0  0
    0.7100   51.9760  -14.7610 C   0  0  0  0  0  0  0  0  0  0  0  0
    0.1540   51.3090  -13.5210 C   0  0  2  0  0  0  0  0  0  0  0  0
    0.1190   49.8110  -13.7190 C   0  0  0  0  0  0  0  0  0  0  0  0
   -1.1510   49.2550  -13.3670 N   0  0  1  0  0  0  0  0  0  0  0  0
   -1.3290   48.9990  -11.9590 C   0  0  0  0  0  0  0  0  0  0  0  0
   -2.2840   49.8870  -13.9780 C   0  0  1  0  0  0  0  0  0  0  0  0
   -2.0540   50.1080  -11.2390 C   0  0  0  0  0  0  0  0  0  0  0  0
   -3.1490   50.5920  -11.9260 O   0  0  0  0  0  0  0  0  0  0  0  0
   -3.4600   49.7780  -13.0010 C   0  0  0  0  0  0  0  0  0  0  0  0
   -2.0210   51.3660  -14.1430 C   0  0  0  0  0  0  0  0  0  0  0  0
   -1.1060   51.8160  -13.1920 O   0  0  0  0  0  0  0  0  0  0  0  0
    0.0470   48.9410  -17.0980 O   0  0  0  0  0  0  0  0  0  0  0  0
   -1.2820   48.4660  -17.2910 C   0  0  0  0  0  0  0  0  0  0  0  0
   -0.2350   50.4860  -21.8860 N   0  0  0  0  0  0  0  0  0  0  0  0
    0.3670   49.8350  -22.3900 H   0  0  0  0  0  0  0  0  0  0  0  0
   -1.6490   50.3250  -21.9270 C   0  0  0  0  0  0  0  0  0  0  0  0
   -2.4810   51.3080  -22.4530 C   0  0  0  0  0  0  0  0  0  0  0  0
   -3.8670   51.1420  -22.4890 C   0  0  0  0  0  0  0  0  0  0  0  0
   -4.8800   52.4090  -23.1630 Cl  0  0  0  0  0  0  0  0  0  0  0  0
   -4.3890   49.9690  -21.9870 C   0  0  0  0  0  0  0  0  0  0  0  0
   -6.2920   49.7270  -22.0320 Br  0  0  0  0  0  0  0  0  0  0  0  0
   -3.5500   48.9890  -21.4620 C   0  0  0  0  0  0  0  0  0  0  0  0
   -2.1710   49.1530  -21.4250 C   0  0  0  0  0  0  0  0  0  0  0  0
   -1.4000   48.1770  -20.9070 F   0  0  0  0  0  0  0  0  0  0  0  0
    0.7431   49.4581  -19.5824 H   0  0  0  0  0  0  0  0  0  0  0  0
   -0.8702   50.2324  -19.1989 H   0  0  0  0  0  0  0  0  0  0  0  0
    1.7279   53.1234  -17.1956 H   0  0  0  0  0  0  0  0  0  0  0  0
    0.6057   54.5929  -21.2329 H   0  0  0  0  0  0  0  0  0  0  0  0
    2.2307   53.8340  -21.4977 H   0  0  0  0  0  0  0  0  0  0  0  0
   -0.0621   52.5614  -15.2150 H   0  0  0  0  0  0  0  0  0  0  0  0
    1.5355   52.5897  -14.4665 H   0  0  0  0  0  0  0  0  0  0  0  0
    0.7984   51.5260  -12.6949 H   0  0  0  0  0  0  0  0  0  0  0  0
    0.8739   49.3636  -13.1068 H   0  0  0  0  0  0  0  0  0  0  0  0
    0.2928   49.6098  -14.7554 H   0  0  0  0  0  0  0  0  0  0  0  0
   -0.3649   48.8766  -11.5113 H   0  0  0  0  0  0  0  0  0  0  0  0
   -1.9291   48.1176  -11.8701 H   0  0  0  0  0  0  0  0  0  0  0  0
   -2.4790   49.4247  -14.9231 H   0  0  0  0  0  0  0  0  0  0  0  0
   -1.3686   50.9149  -11.0840 H   0  0  0  0  0  0  0  0  0  0  0  0
   -2.4173   49.6990  -10.3194 H   0  0  0  0  0  0  0  0  0  0  0  0
   -3.5794   48.7654  -12.6765 H   0  0  0  0  0  0  0  0  0  0  0  0
   -4.3778   50.0772  -13.4625 H   0  0  0  0  0  0  0  0  0  0  0  0
   -2.9403   51.9009  -14.0257 H   0  0  0  0  0  0  0  0  0  0  0  0
   -1.6132   51.5349  -15.1177 H   0  0  0  0  0  0  0  0  0  0  0  0
   -1.4213   47.5612  -16.7371 H   0  0  0  0  0  0  0  0  0  0  0  0
   -1.4454   48.2761  -18.3313 H   0  0  0  0  0  0  0  0  0  0  0  0
   -1.9776   49.2039  -16.9496 H   0  0  0  0  0  0  0  0  0  0  0  0
   -2.0658   52.1769  -22.8239 H   0  0  0  0  0  0  0  0  0  0  0  0
   -3.9632   48.1191  -21.0911 H   0  0  0  0  0  0  0  0  0  0  0  0
  1 25  1  0  0  0  0
  1  6  2  0  0  0  0
  2  1  1  0  0  0  0
  2 38  1  0  0  0  0
  2 39  1  0  0  0  0
  3  2  1  0  0  0  0
  3  4  1  0  0  0  0
  4  5  2  0  0  0  0
  5  6  1  0  0  0  0
  5 40  1  0  0  0  0
  6 13  1  0  0  0  0
  7  8  1  0  0  0  0
  7  4  1  0  0  0  0
  9  7  1  0  0  0  0
  9 41  1  0  0  0  0
  9 42  1  0  0  0  0
 10 12  1  0  0  0  0
 10  9  1  0  0  0  0
 11 10  1  0  0  0  0
 12  3  2  0  0  0  0
 13 14  1  0  0  0  0
 14 15  1  0  0  0  0
 14 43  1  0  0  0  0
 14 44  1  0  0  0  0
 15 24  1  0  0  0  0
 15 45  1  1  0  0  0
 16 15  1  0  0  0  0
 16 17  1  0  0  0  0
 16 46  1  0  0  0  0
 16 47  1  0  0  0  0
 17 19  1  1  0  0  0
 17 18  1  0  0  0  0
 18 20  1  0  0  0  0
 18 48  1  0  0  0  0
 18 49  1  0  0  0  0
 19 22  1  0  0  0  0
 19 50  1  6  0  0  0
 20 51  1  0  0  0  0
 20 52  1  0  0  0  0
 21 20  1  0  0  0  0
 22 21  1  0  0  0  0
 22 53  1  0  0  0  0
 22 54  1  0  0  0  0
 23 19  1  0  0  0  0
 23 24  1  0  0  0  0
 23 55  1  0  0  0  0
 23 56  1  0  0  0  0
 26 25  1  0  0  0  0
 26 57  1  0  0  0  0
 26 58  1  0  0  0  0
 26 59  1  0  0  0  0
 27 12  1  0  0  0  0
 28 27  1  0  0  0  0
 29 27  1  0  0  0  0
 29 36  2  0  0  0  0
 30 29  1  0  0  0  0
 30 60  1  0  0  0  0
 31 30  2  0  0  0  0
 31 33  1  0  0  0  0
 32 31  1  0  0  0  0
 33 35  2  0  0  0  0
 34 33  1  0  0  0  0
 35 36  1  0  0  0  0
 35 61  1  0  0  0  0
 36 37  1  0  0  0  0
M  END
>  <REMARK>
 VINA RESULT:      -7.4      4.505      8.930
  6 active torsions:
  status: ('A' for Active; 'I' for Inactive)
    1  A    between atoms: O_2  and  C_3 
    2  A    between atoms: C_8  and  O_9 
    3  A    between atoms: O_9  and  C_10 
    4  A    between atoms: C_10  and  C_11 
    5  A    between atoms: C_26  and  N_27 
    6  A    between atoms: N_27  and  C_29 

>  <TORSDO>
F 6

$$$$
resistance_project/docking/8faf60323ce63d5a/P00533_WT/docked/molecule_0010_out.pdbqt
 OpenBabel09142609553D

 61 65  0  0  1  0  0  0  0  0999 V2000
   -0.5150   49.5770  -17.4530 C   0  0  0  0  0  0  0  0  0  0  0  0
   -1.0270   50.1180  -18.6170 C   0  0  0  0  0  0  0  0  0  0  0  0
   -0.4360   51.2370  -19.1880 C   0  0  0  0  0  0  0  0  0  0  0  0
    0.6680   51.8540  -18.6370 C   0  0  0  0  0  0  0  0  0  0  0  0
    1.1710   51.3020  -17.4690 C   0  0  0  0  0  0  0  0  0  0  0  0
    0.5900   50.1830  -16.8900 C   0  0  0  0  0  0  0  0  0  0  0  0
    1.2160   52.9390  -19.2160 N   0  0  0  0  0  0  0  0  0  0  0  0
    2.0310   53.3740  -18.7850 H   0  0  0  0  0  0  0  0  0  0  0  0
    0.7130   53.4670  -20.3570 C   0  0  0  0  0  0  0  0  0  0  0  0
   -0.3630   52.8780  -20.9070 N   0  0  0  0  0  0  0  0  0  0  0  0
   -0.7500   53.2680  -21.7660 H   0  0  0  0  0  0  0  0  0  0  0  0
   -0.9490   51.7910  -20.3670 C   0  0  0  0  0  0  0  0  0  0  0  0
    1.1150   49.6360  -15.7040 O   0  0  0  0  0  0  0  0  0  0  0  0
    1.0930   50.3110  -14.4860 C   0  0  0  0  0  0  0  0  0  0  0  0
   -0.3050   50.7530  -14.1120 C   0  0  2  0  0  0  0  0  0  0  0  0
   -0.2370   52.0240  -13.2970 C   0  0  0  0  0  0  0  0  0  0  0  0
   -1.0280   51.9400  -12.1080 N   0  0  1  0  0  0  0  0  0  0  0  0
   -2.4300   52.2210  -12.2950 C   0  0  0  0  0  0  0  0  0  0  0  0
   -0.7820   50.7860  -11.2930 C   0  0  1  0  0  0  0  0  0  0  0  0
   -3.2680   50.9800  -12.4710 C   0  0  0  0  0  0  0  0  0  0  0  0
   -2.9490   49.9660  -11.5910 O   0  0  0  0  0  0  0  0  0  0  0  0
   -2.0980   50.4190  -10.5990 C   0  0  0  0  0  0  0  0  0  0  0  0
   -0.4340   49.6030  -12.1680 C   0  0  0  0  0  0  0  0  0  0  0  0
   -0.9950   49.7420  -13.4370 O   0  0  0  0  0  0  0  0  0  0  0  0
   -1.1020   48.4590  -16.8800 O   0  0  0  0  0  0  0  0  0  0  0  0
   -1.9180   47.6500  -17.7230 C   0  0  0  0  0  0  0  0  0  0  0  0
   -2.0980   51.1950  -20.9930 N   0  0  0  0  0  0  0  0  0  0  0  0
   -2.7490   50.6400  -20.4370 H   0  0  0  0  0  0  0  0  0  0  0  0
   -2.3290   51.3770  -22.3860 C   0  0  0  0  0  0  0  0  0  0  0  0
   -1.3140   51.2070  -23.3220 C   0  0  0  0  0  0  0  0  0  0  0  0
   -1.5480   51.3870  -24.6860 C   0  0  0  0  0  0  0  0  0  0  0  0
   -0.2370   51.1620  -25.8340 Cl  0  0  0  0  0  0  0  0  0  0  0  0
   -2.8210   51.7410  -25.0810 C   0  0  0  0  0  0  0  0  0  0  0  0
   -3.1570   51.9920  -26.9540 Br  0  0  0  0  0  0  0  0  0  0  0  0
   -3.8320   51.9090  -24.1380 C   0  0  0  0  0  0  0  0  0  0  0  0
   -3.6000   51.7300  -22.7800 C   0  0  0  0  0  0  0  0  0  0  0  0
   -4.6100   51.9050  -21.9050 F   0  0  0  0  0  0  0  0  0  0  0  0
   -0.9970   49.3439  -19.3551 H   0  0  0  0  0  0  0  0  0  0  0  0
   -1.9882   50.4783  -18.3152 H   0  0  0  0  0  0  0  0  0  0  0  0
    1.9949   51.7325  -17.0208 H   0  0  0  0  0  0  0  0  0  0  0  0
    0.4470   54.4819  -20.1471 H   0  0  0  0  0  0  0  0  0  0  0  0
    1.4902   53.3288  -21.0793 H   0  0  0  0  0  0  0  0  0  0  0  0
    1.7214   51.1741  -14.5572 H   0  0  0  0  0  0  0  0  0  0  0  0
    1.4430   49.6410  -13.7288 H   0  0  0  0  0  0  0  0  0  0  0  0
   -0.8544   50.9546  -15.0078 H   0  0  0  0  0  0  0  0  0  0  0  0
   -0.5951   52.8368  -13.8937 H   0  0  0  0  0  0  0  0  0  0  0  0
    0.7815   52.1770  -13.0068 H   0  0  0  0  0  0  0  0  0  0  0  0
   -2.7870   52.7533  -11.4382 H   0  0  0  0  0  0  0  0  0  0  0  0
   -2.5213   52.7954  -13.1931 H   0  0  0  0  0  0  0  0  0  0  0  0
    0.0098   51.0009  -10.6061 H   0  0  0  0  0  0  0  0  0  0  0  0
   -3.1299   50.6177  -13.4683 H   0  0  0  0  0  0  0  0  0  0  0  0
   -4.2826   51.2572  -12.2743 H   0  0  0  0  0  0  0  0  0  0  0  0
   -1.9321   49.6498   -9.8739 H   0  0  0  0  0  0  0  0  0  0  0  0
   -2.5138   51.2606  -10.0854 H   0  0  0  0  0  0  0  0  0  0  0  0
    0.6299   49.5363  -12.2605 H   0  0  0  0  0  0  0  0  0  0  0  0
   -0.8256   48.7158  -11.7159 H   0  0  0  0  0  0  0  0  0  0  0  0
   -2.3063   46.8269  -17.1602 H   0  0  0  0  0  0  0  0  0  0  0  0
   -1.3319   47.2799  -18.5381 H   0  0  0  0  0  0  0  0  0  0  0  0
   -2.7285   48.2358  -18.1036 H   0  0  0  0  0  0  0  0  0  0  0  0
   -0.3694   50.9426  -23.0014 H   0  0  0  0  0  0  0  0  0  0  0  0
   -4.7775   52.1732  -24.4561 H   0  0  0  0  0  0  0  0  0  0  0  0
  1  6  2  0  0  0  0
  1 25  1  0  0  0  0
  2  1  1  0  0  0  0
  2 38  1  0  0  0  0
  2 39  1  0  0  0  0
  3  4  1  0  0  0  0
  3  2  1  0  0  0  0
  4  5  2  0  0  0  0
  5  6  1  0  0  0  0
  5 40  1  0  0  0  0
  6 13  1  0  0  0  0
  7  8  1  0  0  0  0
  7  4  1  0  0  0  0
  9  7  1  0  0  0  0
  9 41  1  0  0  0  0
  9 42  1  0  0  0  0
 10 12  1  0  0  0  0
 10  9  1  0  0  0  0
 11 10  1  0  0  0  0
 12  3  2  0  0  0  0
 13 14  1  0  0  0  0
 14 15  1  0  0  0  0
 14 43  1  0  0  0  0
 14 44  1  0  0  0  0
 15 24  1  0  0  0  0
 15 16  1  0  0  0  0
 15 45  1  6  0  0  0
 16 17  1  0  0  0  0
 16 46  1  0  0  0  0
 16 47  1  0  0  0  0
 17 19  1  6  0  0  0
 18 17  1  0  0  0  0
 18 48  1  0  0  0  0
 18 49  1  0  0  0  0
 19 22  1  0  0  0  0
 19 50  1  1  0  0  0
 20 18  1  0  0  0  0
 20 21  1  0  0  0  0
 20 51  1  0  0  0  0
 20 52  1  0  0  0  0
 21 22  1  0  0  0  0
 22 53  1  0  0  0  0
 22 54  1  0  0  0  0
 23 19  1  0  0  0  0
 23 55  1  0  0  0  0
 23 56  1  0  0  0  0
 24 23  1  0  0  0  0
 26 25  1  0  0  0  0
 26 57  1  0  0  0  0
 26 58  1  0  0  0  0
 26 59  1  0  0  0  0
 27 28  1  0  0  0  0
 27 12  1  0  0  0  0
 29 27  1  0  0  0  0
 30 29  2  0  0  0  0
 30 60  1  0  0  0  0
 31 30  1  0  0  0  0
 32 31  1  0  0  0  0
 33 31  2  0  0  0  0
 33 35  1  0  0  0  0
 34 33  1  0  0  0  0
 35 36  2  0  0  0  0
 35 61  1  0  0  0  0
 36 29  1  0  0  0  0
 36 37  1  0  0  0  0
M  END
>  <REMARK>
 VINA RESULT:      -7.4      5.019      9.774
  6 active torsions:
  status: ('A' for Active; 'I' for Inactive)
    1  A    between atoms: O_2  and  C_3 
    2  A    between atoms: C_8  and  O_9 
    3  A    between atoms: O_9  and  C_10 
    4  A    between atoms: C_10  and  C_11 
    5  A    between atoms: C_26  and  N_27 
    6  A    between atoms: N_27  and  C_29 

>  <TORSDO>
F 6

$$$$
resistance_project/docking/8faf60323ce63d5a/P00533_WT/docked/molecule_0010_out.pdbqt
 OpenBabel09142609553D

 63 67  0  0  1  0  0  0  0  0999 V2000
   -1.0230   49.1600  -18.3500 C   0  0  0  0  0  0  0  0  0  0  0  0
   -0.4010   50.3140  -17.9110 C   0  0  0  0  0  0  0  0  0  0  0  0
    0.3040   51.1110  -18.8030 C   0  0  0  0  0  0  0  0  0  0  0  0
    0.4170   50.8030  -20.1430 C   0  0  0  0  0  0  0  0  0  0  0  0
   -0.2110   49.6430  -20.5690 C   0  0  0  0  0  0  0  0  0  0  0  0
   -0.9190   48.8380  -19.6880 C   0  0  0  0  0  0  0  0  0  0  0  0
    1.1080   51.5980  -20.9800 N   0  0  0  0  0  0  0  0  0  0  0  0
    1.1750   51.3440  -21.9660 H   0  0  0  0  0  0  0  0  0  0  0  0
    1.7170   52.7280  -20.5490 C   0  0  0  0  0  0  0  0  0  0  0  0
    1.6170   53.0430  -19.2460 N   0  0  0  0  0  0  0  0  0  0  0  0
    2.0710   53.8920  -18.9110 H   0  0  0  0  0  0  0  0  0  0  0  0
    0.9370   52.2810  -18.3670 C   0  0  2  0  0  0  0  0  0  0  0  0
   -1.5510   47.6640  -20.1390 O   0  0  0  0  0  0  0  0  0  0  0  0
   -2.9300   47.4830  -20.0920 C   0  0  0  0  0  0  0  0  0  0  0  0
   -3.5490   47.5020  -21.4730 C   0  0  2  0  0  0  0  0  0  0  0  0
   -2.4790   47.7720  -22.5070 C   0  0  0  0  0  0  0  0  0  0  0  0
   -2.8640   48.8070  -23.4170 N   0  0  1  0  0  0  0  0  0  0  0  0
   -3.7040   48.3730  -24.5050 C   0  0  0  0  0  0  0  0  0  0  0  0
   -3.3110   50.0230  -22.8020 C   0  0  1  0  0  0  0  0  0  0  0  0
   -5.1740   48.5930  -24.2470 C   0  0  0  0  0  0  0  0  0  0  0  0
   -5.4610   49.8240  -23.6910 O   0  0  0  0  0  0  0  0  0  0  0  0
   -4.3560   50.6550  -23.7270 C   0  0  0  0  0  0  0  0  0  0  0  0
   -4.0370   49.7110  -21.5130 C   0  0  0  0  0  0  0  0  0  0  0  0
   -4.5890   48.4320  -21.5520 O   0  0  0  0  0  0  0  0  0  0  0  0
   -1.7280   48.3610  -17.4620 O   0  0  0  0  0  0  0  0  0  0  0  0
   -1.9660   48.8900  -16.1610 C   0  0  0  0  0  0  0  0  0  0  0  0
    0.8560   52.6600  -16.9820 N   0  0  0  0  0  0  0  0  0  0  0  0
    0.0610   53.2050  -16.6490 H   0  0  0  0  0  0  0  0  0  0  0  0
    1.8850   52.2770  -16.0740 C   0  0  0  0  0  0  0  0  0  0  0  0
    3.2080   52.6610  -16.2660 C   0  0  0  0  0  0  0  0  0  0  0  0
    4.2100   52.2810  -15.3720 C   0  0  0  0  0  0  0  0  0  0  0  0
    5.8690   52.7880  -15.6540 Cl  0  0  0  0  0  0  0  0  0  0  0  0
    3.8490   51.5100  -14.2880 C   0  0  0  0  0  0  0  0  0  0  0  0
    5.2170   50.9810  -13.0500 Br  0  0  0  0  0  0  0  0  0  0  0  0
    2.5220   51.1300  -14.1020 C   0  0  0  0  0  0  0  0  0  0  0  0
    1.5230   51.5070  -14.9910 C   0  0  0  0  0  0  0  0  0  0  0  0
    0.2540   51.1150  -14.7700 F   0  0  0  0  0  0  0  0  0  0  0  0
   -1.1634   50.9310  -17.4833 H   0  0  0  0  0  0  0  0  0  0  0  0
    0.3623   49.9457  -17.2579 H   0  0  0  0  0  0  0  0  0  0  0  0
    0.5517   49.0258  -20.9959 H   0  0  0  0  0  0  0  0  0  0  0  0
   -0.9822   50.0196  -21.2080 H   0  0  0  0  0  0  0  0  0  0  0  0
    1.3046   53.5434  -21.1057 H   0  0  0  0  0  0  0  0  0  0  0  0
    2.7600   52.5423  -20.6989 H   0  0  0  0  0  0  0  0  0  0  0  0
    1.4643   53.2059  -18.2605 H   0  0  0  0  0  0  0  0  0  0  0  0
   -3.1397   46.5400  -19.6319 H   0  0  0  0  0  0  0  0  0  0  0  0
   -3.3513   48.2892  -19.5286 H   0  0  0  0  0  0  0  0  0  0  0  0
   -3.9786   46.5424  -21.6717 H   0  0  0  0  0  0  0  0  0  0  0  0
   -1.5811   48.0684  -22.0061 H   0  0  0  0  0  0  0  0  0  0  0  0
   -2.3289   46.8747  -23.0703 H   0  0  0  0  0  0  0  0  0  0  0  0
   -3.4284   48.9162  -25.3847 H   0  0  0  0  0  0  0  0  0  0  0  0
   -3.5561   47.3195  -24.6194 H   0  0  0  0  0  0  0  0  0  0  0  0
   -2.4688   50.6584  -22.6237 H   0  0  0  0  0  0  0  0  0  0  0  0
   -5.5174   47.8317  -23.5781 H   0  0  0  0  0  0  0  0  0  0  0  0
   -5.6675   48.5552  -25.1957 H   0  0  0  0  0  0  0  0  0  0  0  0
   -4.6163   51.6325  -23.3783 H   0  0  0  0  0  0  0  0  0  0  0  0
   -3.9805   50.7590  -24.7235 H   0  0  0  0  0  0  0  0  0  0  0  0
   -4.8196   50.4264  -21.3693 H   0  0  0  0  0  0  0  0  0  0  0  0
   -3.3365   49.7573  -20.7055 H   0  0  0  0  0  0  0  0  0  0  0  0
   -2.5153   48.1778  -15.5814 H   0  0  0  0  0  0  0  0  0  0  0  0
   -2.5304   49.7954  -16.2419 H   0  0  0  0  0  0  0  0  0  0  0  0
   -1.0310   49.0941  -15.6824 H   0  0  0  0  0  0  0  0  0  0  0  0
    3.4534   53.2382  -17.0855 H   0  0  0  0  0  0  0  0  0  0  0  0
    2.2744   50.5535  -13.2826 H   0  0  0  0  0  0  0  0  0  0  0  0
  1  2  1  0  0  0  0
  1 25  1  0  0  0  0
  2 38  1  0  0  0  0
  2 39  1  0  0  0  0
  3 12  1  0  0  0  0
  3  2  1  0  0  0  0
  4  3  2  0  0  0  0
  5  4  1  0  0  0  0
  5  6  1  0  0  0  0
  5 40  1  0  0  0  0
  5 41  1  0  0  0  0
  6  1  2  0  0  0  0
  7  9  1  0  0  0  0
  7  4  1  0  0  0  0
  8  7  1  0  0  0  0
  9 10  1  0  0  0  0
  9 42  1  0  0  0  0
  9 43  1  0  0  0  0
 10 11  1  0  0  0  0
 10 12  1  0  0  0  0
 12 27  1  0  0  0  0
 12 44  1  6  0  0  0
 13 14  1  0  0  0  0
 13  6  1  0  0  0  0
 14 45  1  0  0  0  0
 14 46  1  0  0  0  0
 15 14  1  0  0  0  0
 15 47  1  6  0  0  0
 16 15  1  0  0  0  0
 16 48  1  0  0  0  0
 16 49  1  0  0  0  0
 17 19  1  1  0  0  0
 17 16  1  0  0  0  0
 18 20  1  0  0  0  0
 18 17  1  0  0  0  0
 18 50  1  0  0  0  0
 18 51  1  0  0  0  0
 19 23  1  0  0  0  0
 19 52  1  1  0  0  0
 20 21  1  0  0  0  0
 20 53  1  0  0  0  0
 20 54  1  0  0  0  0
 22 21  1  0  0  0  0
 22 19  1  0  0  0  0
 22 55  1  0  0  0  0
 22 56  1  0  0  0  0
 23 57  1  0  0  0  0
 23 58  1  0  0  0  0
 24 23  1  0  0  0  0
 24 15  1  0  0  0  0
 25 26  1  0  0  0  0
 26 59  1  0  0  0  0
 26 60  1  0  0  0  0
 26 61  1  0  0  0  0
 27 28  1  0  0  0  0
 27 29  1  0  0  0  0
 29 36  1  0  0  0  0
 30 29  2  0  0  0  0
 30 31  1  0  0  0  0
 30 62  1  0  0  0  0
 31 33  2  0  0  0  0
 32 31  1  0  0  0  0
 33 35  1  0  0  0  0
 33 34  1  0  0  0  0
 35 63  1  0  0  0  0
 36 37  1  0  0  0  0
 36 35  2  0  0  0  0
M  END
>  <REMARK>
 VINA RESULT:      -7.3      3.825      4.957
  6 active torsions:
  status: ('A' for Active; 'I' for Inactive)
    1  A    between atoms: O_2  and  C_3 
    2  A    between atoms: C_8  and  O_9 
    3  A    between atoms: O_9  and  C_10 
    4  A    between atoms: C_10  and  C_11 
    5  A    between atoms: C_26  and  N_27 
    6  A    between atoms: N_27  and  C_29 

>  <TORSDO>
F 6

$$$$
