resistance_project/docking/8faf60323ce63d5a/P00533_WT/docked/molecule_0006_out.pdbqt
 OpenBabel09142609533D

 51 53  0  0  0  0  0  0  0  0999 V2000
    0.1800   50.7240  -18.4510 C   0  0  0  0  0  0  0  0  0  0  0  0
    1.0040   51.8310  -18.6210 C   0  0  0  0  0  0  0  0  0  0  0  0
    1.0720   52.4590  -19.8290 C   0  0  0  0  0  0  0  0  0  0  0  0
    0.3140   51.9880  -20.8840 C   0  0  0  0  0  0  0  0  0  0  0  0
   -0.5140   50.8860  -20.7310 C   0  0  0  0  0  0  0  0  0  0  0  0
   -0.5800   50.2500  -19.5030 C   0  0  0  0  0  0  0  0  0  0  0  0
    0.4300   52.6550  -22.0870 C   0  0  0  0  0  0  0  0  0  0  0  0
    1.2620   53.7270  -22.1930 N   0  0  0  0  0  0  0  0  0  0  0  0
    1.3400   54.2110  -23.0870 H   0  0  0  0  0  0  0  0  0  0  0  0
    1.9850   54.1590  -21.1450 C   0  0  0  0  0  0  0  0  0  0  0  0
    1.8860   53.5180  -19.9600 N   0  0  0  0  0  0  0  0  0  0  0  0
    2.4310   53.8420  -19.1610 H   0  0  0  0  0  0  0  0  0  0  0  0
   -1.4040   49.1110  -19.2670 N   0  0  0  0  0  0  0  0  0  0  0  0
   -2.7910   49.2480  -18.9510 C   0  0  0  0  0  0  0  0  0  0  0  0
   -3.3770   50.3570  -18.8910 O   0  0  0  0  0  0  0  0  0  0  0  0
   -0.9960   48.1790  -19.3240 H   0  0  0  0  0  0  0  0  0  0  0  0
   -3.5460   48.0490  -18.6890 C   0  0  0  0  0  0  0  0  0  0  0  0
   -4.2080   47.0390  -18.4690 C   0  0  0  0  0  0  0  0  0  0  0  0
   -4.9750   45.8200  -18.2070 C   0  0  0  0  0  0  0  0  0  0  0  0
   -4.1370   44.6710  -18.4820 N   0  0  0  0  0  0  0  0  0  0  0  0
   -4.8570   43.4940  -18.0320 C   0  0  0  0  0  0  0  0  0  0  0  0
   -3.9850   44.5730  -19.9200 C   0  0  0  0  0  0  0  0  0  0  0  0
    0.1210   50.0970  -17.2200 O   0  0  0  0  0  0  0  0  0  0  0  0
    1.0300   50.4460  -16.2000 C   0  0  0  0  0  0  0  0  0  0  0  0
   -0.3330   52.2350  -23.2380 N   0  0  0  0  0  0  0  0  0  0  0  0
   -1.2740   51.8590  -23.1200 H   0  0  0  0  0  0  0  0  0  0  0  0
    0.2430   52.3480  -24.5550 C   0  0  0  0  0  0  0  0  0  0  0  0
   -0.2610   53.1830  -25.5130 C   0  0  0  0  0  0  0  0  0  0  0  0
    0.3600   53.2040  -26.7490 C   0  0  0  0  0  0  0  0  0  0  0  0
   -0.2410   54.2540  -28.0130 Cl  0  0  0  0  0  0  0  0  0  0  0  0
    1.4550   52.4220  -27.0460 C   0  0  0  0  0  0  0  0  0  0  0  0
    2.0580   52.4500  -28.2790 F   0  0  0  0  0  0  0  0  0  0  0  0
    1.9580   51.5810  -26.0720 C   0  0  0  0  0  0  0  0  0  0  0  0
    1.3420   51.5670  -24.8590 C   0  0  0  0  0  0  0  0  0  0  0  0
    1.5667   52.1788  -17.8289 H   0  0  0  0  0  0  0  0  0  0  0  0
   -0.1944   50.1548  -21.4438 H   0  0  0  0  0  0  0  0  0  0  0  0
    1.7055   55.1773  -20.9725 H   0  0  0  0  0  0  0  0  0  0  0  0
   -5.2835   45.8028  -17.1826 H   0  0  0  0  0  0  0  0  0  0  0  0
   -5.8419   45.7951  -18.8337 H   0  0  0  0  0  0  0  0  0  0  0  0
   -4.2667   42.6215  -18.2195 H   0  0  0  0  0  0  0  0  0  0  0  0
   -5.7835   43.4184  -18.5618 H   0  0  0  0  0  0  0  0  0  0  0  0
   -5.0516   43.5743  -16.9829 H   0  0  0  0  0  0  0  0  0  0  0  0
   -3.4560   45.4298  -20.2819 H   0  0  0  0  0  0  0  0  0  0  0  0
   -4.9508   44.5302  -20.3786 H   0  0  0  0  0  0  0  0  0  0  0  0
   -3.4360   43.6867  -20.1611 H   0  0  0  0  0  0  0  0  0  0  0  0
    0.8304   49.8588  -15.3281 H   0  0  0  0  0  0  0  0  0  0  0  0
    0.9200   51.4838  -15.9639 H   0  0  0  0  0  0  0  0  0  0  0  0
    2.0294   50.2602  -16.5340 H   0  0  0  0  0  0  0  0  0  0  0  0
   -1.0804   53.7799  -25.3199 H   0  0  0  0  0  0  0  0  0  0  0  0
    2.7767   50.9812  -26.2590 H   0  0  0  0  0  0  0  0  0  0  0  0
    1.7146   50.9409  -24.1281 H   0  0  0  0  0  0  0  0  0  0  0  0
  1 23  1  0  0  0  0
  2  1  1  0  0  0  0
  2 35  1  0  0  0  0
  3  2  2  0  0  0  0
  4  5  1  0  0  0  0
  4  3  1  0  0  0  0
  5  6  1  0  0  0  0
  5 36  1  0  0  0  0
  6 13  1  0  0  0  0
  6  1  2  0  0  0  0
  7  4  2  0  0  0  0
  8  7  1  0  0  0  0
  8 10  1  0  0  0  0
  9  8  1  0  0  0  0
 10 11  1  0  0  0  0
 10 37  1  0  0  0  0
 11  3  1  0  0  0  0
 11 12  1  0  0  0  0
 13 14  1  0  0  0  0
 14 15  2  0  0  0  0
 14 17  1  0  0  0  0
 16 13  1  0  0  0  0
 17 18  3  0  0  0  0
 18 19  1  0  0  0  0
 19 38  1  0  0  0  0
 19 39  1  0  0  0  0
 20 19  1  0  0  0  0
 20 21  1  0  0  0  0
 21 40  1  0  0  0  0
 21 41  1  0  0  0  0
 21 42  1  0  0  0  0
 22 20  1  0  0  0  0
 22 43  1  0  0  0  0
 22 44  1  0  0  0  0
 22 45  1  0  0  0  0
 23 24  1  0  0  0  0
 24 46  1  0  0  0  0
 24 47  1  0  0  0  0
 24 48  1  0  0  0  0
 25 26  1  0  0  0  0
 25  7  1  0  0  0  0
 27 25  1  0  0  0  0
 28 27  2  0  0  0  0
 28 49  1  0  0  0  0
 29 28  1  0  0  0  0
 30 29  1  0  0  0  0
 31 29  2  0  0  0  0
 31 33  1  0  0  0  0
 32 31  1  0  0  0  0
 33 34  2  0  0  0  0
 33 50  1  0  0  0  0
 34 27  1  0  0  0  0
 34 51  1  0  0  0  0
M  END
>  <MODEL>
1

>  <REMARK>
 VINA RESULT:      -7.3      0.000      0.000
  7 active torsions:
  status: ('A' for Active; 'I' for Inactive)
    1  A    between atoms: O_2  and  C_3 
    2  A    between atoms: C_8  and  N_9 
       I    between atoms: N_9  and  C_11 
    3  A    between atoms: C_11  and  C_13 
    4  A    between atoms: C_14  and  C_15 
    5  A    between atoms: C_15  and  N_16 
    6  A    between atoms: C_19  and  N_20 
    7  A    between atoms: N_20  and  C_22 

>  <TORSDO>
F 7

$$$$
resistance_project/docking/8faf60323ce63d5a/P00533_WT/docked/molecule_0006_out.pdbqt
 OpenBabel09142609533D

 51 53  0  0  0  0  0  0  0  0999 V2000
   -1.0640   49.4230  -19.1590 C   0  0  0  0  0  0  0  0  0  0  0  0
   -2.0000   49.1030  -20.1370 C   0  0  0  0  0  0  0  0  0  0  0  0
   -1.9810   49.7400  -21.3410 C   0  0  0  0  0  0  0  0  0  0  0  0
   -1.0240   50.7070  -21.5840 C   0  0  0  0  0  0  0  0  0  0  0  0
   -0.0830   51.0360  -20.6200 C   0  0  0  0  0  0  0  0  0  0  0  0
   -0.1060   50.3880  -19.3980 C   0  0  0  0  0  0  0  0  0  0  0  0
   -1.0570   51.3270  -22.8170 C   0  0  0  0  0  0  0  0  0  0  0  0
   -2.0060   50.9770  -23.7290 N   0  0  0  0  0  0  0  0  0  0  0  0
   -2.0210   51.4430  -24.6360 H   0  0  0  0  0  0  0  0  0  0  0  0
   -2.9220   50.0320  -23.4590 C   0  0  0  0  0  0  0  0  0  0  0  0
   -2.9050   49.4130  -22.2580 N   0  0  0  0  0  0  0  0  0  0  0  0
   -3.5980   48.6940  -22.0470 H   0  0  0  0  0  0  0  0  0  0  0  0
    0.8250   50.6720  -18.3560 N   0  0  0  0  0  0  0  0  0  0  0  0
    1.2430   52.0100  -18.0750 C   0  0  0  0  0  0  0  0  0  0  0  0
    0.8040   53.0120  -18.6920 O   0  0  0  0  0  0  0  0  0  0  0  0
    1.2010   49.9060  -17.7990 H   0  0  0  0  0  0  0  0  0  0  0  0
    2.2150   52.2090  -17.0300 C   0  0  0  0  0  0  0  0  0  0  0  0
    3.0440   52.3990  -16.1450 C   0  0  0  0  0  0  0  0  0  0  0  0
    4.0290   52.6030  -15.0810 C   0  0  0  0  0  0  0  0  0  0  0  0
    4.0720   51.4170  -14.2500 N   0  0  0  0  0  0  0  0  0  0  0  0
    5.4110   51.3240  -13.7000 C   0  0  0  0  0  0  0  0  0  0  0  0
    3.1550   51.6230  -13.1470 C   0  0  0  0  0  0  0  0  0  0  0  0
   -1.0960   48.7690  -17.9410 O   0  0  0  0  0  0  0  0  0  0  0  0
   -2.1600   48.9890  -17.0420 C   0  0  0  0  0  0  0  0  0  0  0  0
   -0.0890   52.3420  -23.1570 N   0  0  0  0  0  0  0  0  0  0  0  0
    0.2510   52.9860  -22.4430 H   0  0  0  0  0  0  0  0  0  0  0  0
    0.3960   52.4390  -24.5120 C   0  0  0  0  0  0  0  0  0  0  0  0
   -0.1090   53.3320  -25.4150 C   0  0  0  0  0  0  0  0  0  0  0  0
    0.4190   53.3320  -26.6940 C   0  0  0  0  0  0  0  0  0  0  0  0
   -0.1880   54.4540  -27.8920 Cl  0  0  0  0  0  0  0  0  0  0  0  0
    1.4230   52.4730  -27.0860 C   0  0  0  0  0  0  0  0  0  0  0  0
    1.9340   52.4820  -28.3600 F   0  0  0  0  0  0  0  0  0  0  0  0
    1.9280   51.5750  -26.1660 C   0  0  0  0  0  0  0  0  0  0  0  0
    1.4040   51.5810  -24.9100 C   0  0  0  0  0  0  0  0  0  0  0  0
   -2.7120   48.3798  -19.9496 H   0  0  0  0  0  0  0  0  0  0  0  0
   -0.1940   52.0813  -20.4204 H   0  0  0  0  0  0  0  0  0  0  0  0
   -2.8126   49.2709  -24.2030 H   0  0  0  0  0  0  0  0  0  0  0  0
    3.7475   53.4477  -14.4876 H   0  0  0  0  0  0  0  0  0  0  0  0
    4.9934   52.7823  -15.5083 H   0  0  0  0  0  0  0  0  0  0  0  0
    6.1126   51.1713  -14.4933 H   0  0  0  0  0  0  0  0  0  0  0  0
    5.4599   50.5015  -13.0173 H   0  0  0  0  0  0  0  0  0  0  0  0
    5.6483   52.2306  -13.1837 H   0  0  0  0  0  0  0  0  0  0  0  0
    2.1558   51.6957  -13.5227 H   0  0  0  0  0  0  0  0  0  0  0  0
    3.4103   52.5273  -12.6351 H   0  0  0  0  0  0  0  0  0  0  0  0
    3.2219   50.7981  -12.4688 H   0  0  0  0  0  0  0  0  0  0  0  0
   -2.0106   48.3997  -16.1615 H   0  0  0  0  0  0  0  0  0  0  0  0
   -3.0827   48.7093  -17.5061 H   0  0  0  0  0  0  0  0  0  0  0  0
   -2.1940   50.0249  -16.7763 H   0  0  0  0  0  0  0  0  0  0  0  0
   -0.8617   53.9868  -25.1508 H   0  0  0  0  0  0  0  0  0  0  0  0
    2.6812   50.9182  -26.4237 H   0  0  0  0  0  0  0  0  0  0  0  0
    1.7781   50.9111  -24.2199 H   0  0  0  0  0  0  0  0  0  0  0  0
  1 23  1  0  0  0  0
  2  1  1  0  0  0  0
  2 35  1  0  0  0  0
  3  2  2  0  0  0  0
  4  3  1  0  0  0  0
  4  5  1  0  0  0  0
  5  6  1  0  0  0  0
  5 36  1  0  0  0  0
  6  1  2  0  0  0  0
  6 13  1  0  0  0  0
  7  4  2  0  0  0  0
  8 10  1  0  0  0  0
  8  7  1  0  0  0  0
  9  8  1  0  0  0  0
 10 11  1  0  0  0  0
 10 37  1  0  0  0  0
 11 12  1  0  0  0  0
 11  3  1  0  0  0  0
 13 14  1  0  0  0  0
 13 16  1  0  0  0  0
 14 17  1  0  0  0  0
 15 14  2  0  0  0  0
 17 18  3  0  0  0  0
 18 19  1  0  0  0  0
 19 20  1  0  0  0  0
 19 38  1  0  0  0  0
 19 39  1  0  0  0  0
 20 21  1  0  0  0  0
 20 22  1  0  0  0  0
 21 40  1  0  0  0  0
 21 41  1  0  0  0  0
 21 42  1  0  0  0  0
 22 43  1  0  0  0  0
 22 44  1  0  0  0  0
 22 45  1  0  0  0  0
 23 24  1  0  0  0  0
 24 46  1  0  0  0  0
 24 47  1  0  0  0  0
 24 48  1  0  0  0  0
 25  7  1  0  0  0  0
 25 26  1  0  0  0  0
 27 25  1  0  0  0  0
 28 27  2  0  0  0  0
 28 49  1  0  0  0  0
 29 28  1  0  0  0  0
 30 29  1  0  0  0  0
 31 29  2  0  0  0  0
 31 33  1  0  0  0  0
 32 31  1  0  0  0  0
 33 34  2  0  0  0  0
 33 50  1  0  0  0  0
 34 27  1  0  0  0  0
 34 51  1  0  0  0  0
M  END
>  <REMARK>
 VINA RESULT:      -7.1      2.620      5.706
  7 active torsions:
  status: ('A' for Active; 'I' for Inactive)
    1  A    between atoms: O_2  and  C_3 
    2  A    between atoms: C_8  and  N_9 
       I    between atoms: N_9  and  C_11 
    3  A    between atoms: C_11  and  C_13 
    4  A    between atoms: C_14  and  C_15 
    5  A    between atoms: C_15  and  N_16 
    6  A    between atoms: C_19  and  N_20 
    7  A    between atoms: N_20  and  C_22 

>  <TORSDO>
F 7

$$$$
resistance_project/docking/8faf60323ce63d5a/P00533_WT/docked/molecule_0006_out.pdbqt
 OpenBabel09142609533D

 51 53  0  0  0  0  0  0  0  0999 V2000
    0.9090   51.0970  -17.3840 C   0  0  0  0  0  0  0  0  0  0  0  0
    1.3480   52.2590  -18.0080 C   0  0  0  0  0  0  0  0  0  0  0  0
    1.1110   52.4590  -19.3350 C   0  0  0  0  0  0  0  0  0  0  0  0
    0.4280   51.4980  -20.0560 C   0  0  0  0  0  0  0  0  0  0  0  0
   -0.0190   50.3350  -19.4480 C   0  0  0  0  0  0  0  0  0  0  0  0
    0.2250   50.1340  -18.1000 C   0  0  0  0  0  0  0  0  0  0  0  0
    0.2240   51.7480  -21.3980 C   0  0  0  0  0  0  0  0  0  0  0  0
    0.6890   52.9010  -21.9540 N   0  0  0  0  0  0  0  0  0  0  0  0
    0.5330   53.0740  -22.9470 H   0  0  0  0  0  0  0  0  0  0  0  0
    1.3490   53.8150  -21.2220 C   0  0  0  0  0  0  0  0  0  0  0  0
    1.5580   53.5880  -19.9070 N   0  0  0  0  0  0  0  0  0  0  0  0
    2.0580   54.2780  -19.3460 H   0  0  0  0  0  0  0  0  0  0  0  0
   -0.1990   48.9640  -17.4050 N   0  0  0  0  0  0  0  0  0  0  0  0
   -1.4900   48.8860  -16.7970 C   0  0  0  0  0  0  0  0  0  0  0  0
   -2.3370   49.8110  -16.8580 O   0  0  0  0  0  0  0  0  0  0  0  0
    0.4320   48.1660  -17.3390 H   0  0  0  0  0  0  0  0  0  0  0  0
   -1.8270   47.6820  -16.0810 C   0  0  0  0  0  0  0  0  0  0  0  0
   -2.1050   46.6450  -15.4850 C   0  0  0  0  0  0  0  0  0  0  0  0
   -2.4440   45.4220  -14.7550 C   0  0  0  0  0  0  0  0  0  0  0  0
   -1.4380   44.4170  -15.0310 N   0  0  0  0  0  0  0  0  0  0  0  0
   -1.5580   43.3950  -14.0090 C   0  0  0  0  0  0  0  0  0  0  0  0
   -1.7670   43.8090  -16.3050 C   0  0  0  0  0  0  0  0  0  0  0  0
    1.1580   50.9070  -16.0370 O   0  0  0  0  0  0  0  0  0  0  0  0
    2.0880   51.7250  -15.3630 C   0  0  0  0  0  0  0  0  0  0  0  0
   -0.4880   50.8010  -22.2230 N   0  0  0  0  0  0  0  0  0  0  0  0
   -0.0750   49.8930  -22.4340 H   0  0  0  0  0  0  0  0  0  0  0  0
   -1.7860   51.1480  -22.7480 C   0  0  0  0  0  0  0  0  0  0  0  0
   -1.9980   51.4250  -24.0690 C   0  0  0  0  0  0  0  0  0  0  0  0
   -3.2810   51.7610  -24.4640 C   0  0  0  0  0  0  0  0  0  0  0  0
   -3.6130   52.1250  -26.1430 Cl  0  0  0  0  0  0  0  0  0  0  0  0
   -4.3400   51.8260  -23.5840 C   0  0  0  0  0  0  0  0  0  0  0  0
   -5.6070   52.1640  -23.9900 F   0  0  0  0  0  0  0  0  0  0  0  0
   -4.1150   51.5420  -22.2510 C   0  0  0  0  0  0  0  0  0  0  0  0
   -2.8510   51.2120  -21.8690 C   0  0  0  0  0  0  0  0  0  0  0  0
    1.8559   52.9737  -17.4637 H   0  0  0  0  0  0  0  0  0  0  0  0
    0.4311   49.5173  -19.9712 H   0  0  0  0  0  0  0  0  0  0  0  0
    0.7990   54.7298  -21.2965 H   0  0  0  0  0  0  0  0  0  0  0  0
   -3.4023   45.0678  -15.0730 H   0  0  0  0  0  0  0  0  0  0  0  0
   -2.4764   45.6238  -13.7047 H   0  0  0  0  0  0  0  0  0  0  0  0
   -0.8278   42.6319  -14.1802 H   0  0  0  0  0  0  0  0  0  0  0  0
   -2.5376   42.9662  -14.0467 H   0  0  0  0  0  0  0  0  0  0  0  0
   -1.3972   43.8329  -13.0461 H   0  0  0  0  0  0  0  0  0  0  0  0
   -1.6870   44.5414  -17.0810 H   0  0  0  0  0  0  0  0  0  0  0  0
   -2.7678   43.4318  -16.2724 H   0  0  0  0  0  0  0  0  0  0  0  0
   -1.0891   43.0050  -16.5021 H   0  0  0  0  0  0  0  0  0  0  0  0
    2.1447   51.4293  -14.3362 H   0  0  0  0  0  0  0  0  0  0  0  0
    1.7742   52.7462  -15.4233 H   0  0  0  0  0  0  0  0  0  0  0  0
    3.0507   51.6202  -15.8181 H   0  0  0  0  0  0  0  0  0  0  0  0
   -1.2249   51.3849  -24.7514 H   0  0  0  0  0  0  0  0  0  0  0  0
   -4.8840   51.5790  -21.5638 H   0  0  0  0  0  0  0  0  0  0  0  0
   -2.6792   50.9990  -20.8739 H   0  0  0  0  0  0  0  0  0  0  0  0
  1 23  1  0  0  0  0
  2  1  1  0  0  0  0
  2 35  1  0  0  0  0
  3  2  2  0  0  0  0
  4  5  1  0  0  0  0
  4  3  1  0  0  0  0
  5  6  1  0  0  0  0
  5 36  1  0  0  0  0
  6 13  1  0  0  0  0
  6  1  2  0  0  0  0
  7  4  2  0  0  0  0
  8  7  1  0  0  0  0
  8 10  1  0  0  0  0
  9  8  1  0  0  0  0
 10 11  1  0  0  0  0
 10 37  1  0  0  0  0
 11 12  1  0  0  0  0
 11  3  1  0  0  0  0
 13 16  1  0  0  0  0
 13 14  1  0  0  0  0
 14 17  1  0  0  0  0
 15 14  2  0  0  0  0
 17 18  3  0  0  0  0
 18 19  1  0  0  0  0
 19 38  1  0  0  0  0
 19 39  1  0  0  0  0
 20 19  1  0  0  0  0
 20 21  1  0  0  0  0
 21 40  1  0  0  0  0
 21 41  1  0  0  0  0
 21 42  1  0  0  0  0
 22 20  1  0  0  0  0
 22 43  1  0  0  0  0
 22 44  1  0  0  0  0
 22 45  1  0  0  0  0
 23 24  1  0  0  0  0
 24 46  1  0  0  0  0
 24 47  1  0  0  0  0
 24 48  1  0  0  0  0
 25  7  1  0  0  0  0
 26 25  1  0  0  0  0
 27 25  1  0  0  0  0
 27 34  2  0  0  0  0
 28 27  1  0  0  0  0
 28 49  1  0  0  0  0
 29 28  2  0  0  0  0
 29 31  1  0  0  0  0
 30 29  1  0  0  0  0
 31 33  2  0  0  0  0
 32 31  1  0  0  0  0
 33 34  1  0  0  0  0
 33 50  1  0  0  0  0
 34 51  1  0  0  0  0
M  END
>  <REMARK>
 VINA RESULT:      -7.1      3.160      3.666
  7 active torsions:
  status: ('A' for Active; 'I' for Inactive)
    1  A    between atoms: O_2  and  C_3 
    2  A    between atoms: C_8  and  N_9 
       I    between atoms: N_9  and  C_11 
    3  A    between atoms: C_11  and  C_13 
    4  A    between atoms: C_14  and  C_15 
    5  A    between atoms: C_15  and  N_16 
    6  A    between atoms: C_19  and  N_20 
    7  A    between atoms: N_20  and  C_22 

>  <TORSDO>
F 7

$$$$
resistance_project/docking/8faf60323ce63d5a/P00533_WT/docked/molecule_0006_out.pdbqt
 OpenBabel09142609533D

 51 53  0  0  0  0  0  0  0  0999 V2000
   -0.2390   49.9440  -18.7880 C   0  0  0  0  0  0  0  0  0  0  0  0
    0.6670   50.9980  -18.7470 C   0  0  0  0  0  0  0  0  0  0  0  0
    0.7940   51.8360  -19.8140 C   0  0  0  0  0  0  0  0  0  0  0  0
    0.0140   51.6330  -20.9360 C   0  0  0  0  0  0  0  0  0  0  0  0
   -0.8960   50.5880  -20.9910 C   0  0  0  0  0  0  0  0  0  0  0  0
   -1.0210   49.7370  -19.9070 C   0  0  0  0  0  0  0  0  0  0  0  0
    0.1910   52.5060  -21.9900 C   0  0  0  0  0  0  0  0  0  0  0  0
    1.1030   53.5130  -21.8950 N   0  0  0  0  0  0  0  0  0  0  0  0
    1.2260   54.1510  -22.6800 H   0  0  0  0  0  0  0  0  0  0  0  0
    1.8460   53.6820  -20.7870 C   0  0  0  0  0  0  0  0  0  0  0  0
    1.6860   52.8370  -19.7440 N   0  0  0  0  0  0  0  0  0  0  0  0
    2.2460   52.9610  -18.9010 H   0  0  0  0  0  0  0  0  0  0  0  0
   -1.9310   48.6400  -19.8880 N   0  0  0  0  0  0  0  0  0  0  0  0
   -3.3030   48.8150  -19.5300 C   0  0  0  0  0  0  0  0  0  0  0  0
   -3.8020   49.9320  -19.2430 O   0  0  0  0  0  0  0  0  0  0  0  0
   -1.5960   47.7090  -20.1360 H   0  0  0  0  0  0  0  0  0  0  0  0
   -4.1490   47.6490  -19.4990 C   0  0  0  0  0  0  0  0  0  0  0  0
   -4.8770   46.6620  -19.4550 C   0  0  0  0  0  0  0  0  0  0  0  0
   -5.7400   45.4790  -19.4260 C   0  0  0  0  0  0  0  0  0  0  0  0
   -6.8690   45.7010  -20.3060 N   0  0  0  0  0  0  0  0  0  0  0  0
   -6.3420   45.8920  -21.6440 C   0  0  0  0  0  0  0  0  0  0  0  0
   -7.6630   44.4880  -20.3120 C   0  0  0  0  0  0  0  0  0  0  0  0
   -0.3570   49.1000  -17.6980 O   0  0  0  0  0  0  0  0  0  0  0  0
    0.2000   49.4620  -16.4540 C   0  0  0  0  0  0  0  0  0  0  0  0
   -0.5900   52.3710  -23.1970 N   0  0  0  0  0  0  0  0  0  0  0  0
   -1.5990   52.2380  -23.1420 H   0  0  0  0  0  0  0  0  0  0  0  0
    0.0660   52.4260  -24.4810 C   0  0  0  0  0  0  0  0  0  0  0  0
   -0.3620   53.2350  -25.4950 C   0  0  0  0  0  0  0  0  0  0  0  0
    0.3320   53.1980  -26.6910 C   0  0  0  0  0  0  0  0  0  0  0  0
   -0.1700   54.2140  -28.0260 Cl  0  0  0  0  0  0  0  0  0  0  0  0
    1.4260   52.3850  -26.8950 C   0  0  0  0  0  0  0  0  0  0  0  0
    2.1030   52.3570  -28.0890 F   0  0  0  0  0  0  0  0  0  0  0  0
    1.8520   51.5720  -25.8630 C   0  0  0  0  0  0  0  0  0  0  0  0
    1.1650   51.6130  -24.6890 C   0  0  0  0  0  0  0  0  0  0  0  0
    1.2454   51.1462  -17.9053 H   0  0  0  0  0  0  0  0  0  0  0  0
   -0.6260   49.9838  -21.8318 H   0  0  0  0  0  0  0  0  0  0  0  0
    1.6430   54.6676  -20.4233 H   0  0  0  0  0  0  0  0  0  0  0  0
   -5.1888   44.6239  -19.7575 H   0  0  0  0  0  0  0  0  0  0  0  0
   -6.0860   45.3067  -18.4283 H   0  0  0  0  0  0  0  0  0  0  0  0
   -7.1501   46.0595  -22.3251 H   0  0  0  0  0  0  0  0  0  0  0  0
   -5.7998   45.0189  -21.9418 H   0  0  0  0  0  0  0  0  0  0  0  0
   -5.6875   46.7384  -21.6521 H   0  0  0  0  0  0  0  0  0  0  0  0
   -8.5084   44.6183  -20.9548 H   0  0  0  0  0  0  0  0  0  0  0  0
   -7.9996   44.2771  -19.3184 H   0  0  0  0  0  0  0  0  0  0  0  0
   -7.0670   43.6734  -20.6671 H   0  0  0  0  0  0  0  0  0  0  0  0
    0.0083   48.6894  -15.7390 H   0  0  0  0  0  0  0  0  0  0  0  0
   -0.2420   50.3766  -16.1179 H   0  0  0  0  0  0  0  0  0  0  0  0
    1.2563   49.5946  -16.5612 H   0  0  0  0  0  0  0  0  0  0  0  0
   -1.1780   53.8548  -25.3726 H   0  0  0  0  0  0  0  0  0  0  0  0
    2.6681   50.9511  -25.9789 H   0  0  0  0  0  0  0  0  0  0  0  0
    1.4800   51.0070  -23.9153 H   0  0  0  0  0  0  0  0  0  0  0  0
  1  2  1  0  0  0  0
  1 23  1  0  0  0  0
  2 35  1  0  0  0  0
  3 11  1  0  0  0  0
  3  2  2  0  0  0  0
  4  3  1  0  0  0  0
  5  4  1  0  0  0  0
  5  6  1  0  0  0  0
  5 36  1  0  0  0  0
  6 13  1  0  0  0  0
  6  1  2  0  0  0  0
  7  8  1  0  0  0  0
  7  4  2  0  0  0  0
  8 10  1  0  0  0  0
  9  8  1  0  0  0  0
 10 11  1  0  0  0  0
 10 37  1  0  0  0  0
 11 12  1  0  0  0  0
 13 14  1  0  0  0  0
 14 17  1  0  0  0  0
 14 15  2  0  0  0  0
 16 13  1  0  0  0  0
 17 18  3  0  0  0  0
 18 19  1  0  0  0  0
 19 38  1  0  0  0  0
 19 39  1  0  0  0  0
 20 19  1  0  0  0  0
 21 20  1  0  0  0  0
 21 40  1  0  0  0  0
 21 41  1  0  0  0  0
 21 42  1  0  0  0  0
 22 20  1  0  0  0  0
 22 43  1  0  0  0  0
 22 44  1  0  0  0  0
 22 45  1  0  0  0  0
 23 24  1  0  0  0  0
 24 46  1  0  0  0  0
 24 47  1  0  0  0  0
 24 48  1  0  0  0  0
 25 26  1  0  0  0  0
 25  7  1  0  0  0  0
 27 25  1  0  0  0  0
 28 27  2  0  0  0  0
 28 49  1  0  0  0  0
 29 28  1  0  0  0  0
 30 29  1  0  0  0  0
 31 29  2  0  0  0  0
 31 33  1  0  0  0  0
 32 31  1  0  0  0  0
 33 34  2  0  0  0  0
 33 50  1  0  0  0  0
 34 27  1  0  0  0  0
 34 51  1  0  0  0  0
M  END
>  <REMARK>
 VINA RESULT:      -7.0      1.292      1.433
  7 active torsions:
  status: ('A' for Active; 'I' for Inactive)
    1  A    between atoms: O_2  and  C_3 
    2  A    between atoms: C_8  and  N_9 
       I    between atoms: N_9  and  C_11 
    3  A    between atoms: C_11  and  C_13 
    4  A    between atoms: C_14  and  C_15 
    5  A    between atoms: C_15  and  N_16 
    6  A    between atoms: C_19  and  N_20 
    7  A    between atoms: N_20  and  C_22 

>  <TORSDO>
F 7

$$$$
resistance_project/docking/8faf60323ce63d5a/P00533_WT/docked/molecule_0006_out.pdbqt
 OpenBabel09142609533D

 51 53  0  0  0  0  0  0  0  0999 V2000
   -4.1870   49.6060  -19.0270 C   0  0  0  0  0  0  0  0  0  0  0  0
   -5.2620   49.1460  -19.7790 C   0  0  0  0  0  0  0  0  0  0  0  0
   -5.5260   49.6840  -21.0040 C   0  0  0  0  0  0  0  0  0  0  0  0
   -4.7150   50.6900  -21.4930 C   0  0  0  0  0  0  0  0  0  0  0  0
   -3.6380   51.1600  -20.7550 C   0  0  0  0  0  0  0  0  0  0  0  0
   -3.3740   50.6110  -19.5120 C   0  0  0  0  0  0  0  0  0  0  0  0
   -5.0330   51.2060  -22.7330 C   0  0  0  0  0  0  0  0  0  0  0  0
   -6.1050   50.7210  -23.4160 N   0  0  0  0  0  0  0  0  0  0  0  0
   -6.3320   51.1100  -24.3320 H   0  0  0  0  0  0  0  0  0  0  0  0
   -6.8730   49.7400  -22.9110 C   0  0  0  0  0  0  0  0  0  0  0  0
   -6.5770   49.2220  -21.6980 N   0  0  0  0  0  0  0  0  0  0  0  0
   -7.1560   48.4780  -21.3090 H   0  0  0  0  0  0  0  0  0  0  0  0
   -2.2890   51.0410  -18.6940 N   0  0  0  0  0  0  0  0  0  0  0  0
   -0.9670   50.5320  -18.8810 C   0  0  0  0  0  0  0  0  0  0  0  0
   -0.6670   49.7100  -19.7830 O   0  0  0  0  0  0  0  0  0  0  0  0
   -2.4590   51.7270  -17.9580 H   0  0  0  0  0  0  0  0  0  0  0  0
    0.0670   50.9890  -17.9880 C   0  0  0  0  0  0  0  0  0  0  0  0
    0.9370   51.3710  -17.2110 C   0  0  0  0  0  0  0  0  0  0  0  0
    1.9900   51.8320  -16.3030 C   0  0  0  0  0  0  0  0  0  0  0  0
    1.7380   51.2930  -14.9820 N   0  0  0  0  0  0  0  0  0  0  0  0
    0.5210   51.9100  -14.4900 C   0  0  0  0  0  0  0  0  0  0  0  0
    1.4860   49.8730  -15.1300 C   0  0  0  0  0  0  0  0  0  0  0  0
   -3.9330   49.0510  -17.7860 O   0  0  0  0  0  0  0  0  0  0  0  0
   -3.4570   47.7280  -17.6830 C   0  0  0  0  0  0  0  0  0  0  0  0
   -4.2330   52.2540  -23.3220 N   0  0  0  0  0  0  0  0  0  0  0  0
   -4.5360   53.2260  -23.2610 H   0  0  0  0  0  0  0  0  0  0  0  0
   -3.0040   51.9180  -23.9980 C   0  0  0  0  0  0  0  0  0  0  0  0
   -1.7760   52.2770  -23.5200 C   0  0  0  0  0  0  0  0  0  0  0  0
   -0.6620   51.9160  -24.2560 C   0  0  0  0  0  0  0  0  0  0  0  0
    0.9380   52.3480  -23.6920 Cl  0  0  0  0  0  0  0  0  0  0  0  0
   -0.7440   51.2150  -25.4400 C   0  0  0  0  0  0  0  0  0  0  0  0
    0.3710   50.8670  -26.1610 F   0  0  0  0  0  0  0  0  0  0  0  0
   -1.9900   50.8550  -25.9150 C   0  0  0  0  0  0  0  0  0  0  0  0
   -3.0820   51.2130  -25.1860 C   0  0  0  0  0  0  0  0  0  0  0  0
   -5.8633   48.3936  -19.4083 H   0  0  0  0  0  0  0  0  0  0  0  0
   -3.7961   52.2077  -20.6057 H   0  0  0  0  0  0  0  0  0  0  0  0
   -6.8446   48.9309  -23.6106 H   0  0  0  0  0  0  0  0  0  0  0  0
    1.9862   52.9012  -16.2616 H   0  0  0  0  0  0  0  0  0  0  0  0
    2.9441   51.4993  -16.6549 H   0  0  0  0  0  0  0  0  0  0  0  0
    0.6774   52.9618  -14.3706 H   0  0  0  0  0  0  0  0  0  0  0  0
    0.2589   51.4790  -13.5464 H   0  0  0  0  0  0  0  0  0  0  0  0
   -0.2711   51.7444  -15.1901 H   0  0  0  0  0  0  0  0  0  0  0  0
    2.3692   49.3899  -15.4927 H   0  0  0  0  0  0  0  0  0  0  0  0
    0.6864   49.7232  -15.8251 H   0  0  0  0  0  0  0  0  0  0  0  0
    1.2164   49.4578  -14.1814 H   0  0  0  0  0  0  0  0  0  0  0  0
   -3.3209   47.4772  -16.6518 H   0  0  0  0  0  0  0  0  0  0  0  0
   -2.5222   47.6443  -18.1968 H   0  0  0  0  0  0  0  0  0  0  0  0
   -4.1667   47.0584  -18.1223 H   0  0  0  0  0  0  0  0  0  0  0  0
   -1.6821   52.8018  -22.6364 H   0  0  0  0  0  0  0  0  0  0  0  0
   -2.0900   50.3295  -26.7975 H   0  0  0  0  0  0  0  0  0  0  0  0
   -4.0149   50.9453  -25.5368 H   0  0  0  0  0  0  0  0  0  0  0  0
  1 23  1  0  0  0  0
  2  1  1  0  0  0  0
  2 35  1  0  0  0  0
  3  2  2  0  0  0  0
  4  3  1  0  0  0  0
  4  5  1  0  0  0  0
  5  6  1  0  0  0  0
  5 36  1  0  0  0  0
  6  1  2  0  0  0  0
  6 13  1  0  0  0  0
  7  4  2  0  0  0  0
  8 10  1  0  0  0  0
  8  7  1  0  0  0  0
  9  8  1  0  0  0  0
 10 11  1  0  0  0  0
 10 37  1  0  0  0  0
 11 12  1  0  0  0  0
 11  3  1  0  0  0  0
 13 16  1  0  0  0  0
 14 13  1  0  0  0  0
 14 17  1  0  0  0  0
 15 14  2  0  0  0  0
 17 18  3  0  0  0  0
 18 19  1  0  0  0  0
 19 20  1  0  0  0  0
 19 38  1  0  0  0  0
 19 39  1  0  0  0  0
 20 21  1  0  0  0  0
 21 40  1  0  0  0  0
 21 41  1  0  0  0  0
 21 42  1  0  0  0  0
 22 20  1  0  0  0  0
 22 43  1  0  0  0  0
 22 44  1  0  0  0  0
 22 45  1  0  0  0  0
 23 24  1  0  0  0  0
 24 46  1  0  0  0  0
 24 47  1  0  0  0  0
 24 48  1  0  0  0  0
 25 26  1  0  0  0  0
 25  7  1  0  0  0  0
 27 28  1  0  0  0  0
 27 25  1  0  0  0  0
 28 49  1  0  0  0  0
 29 30  1  0  0  0  0
 29 28  2  0  0  0  0
 31 29  1  0  0  0  0
 32 31  1  0  0  0  0
 33 31  2  0  0  0  0
 33 34  1  0  0  0  0
 33 50  1  0  0  0  0
 34 27  2  0  0  0  0
 34 51  1  0  0  0  0
M  END
>  <REMARK>
 VINA RESULT:      -6.9      3.232      6.015
  7 active torsions:
  status: ('A' for Active; 'I' for Inactive)
    1  A    between atoms: O_2  and  C_3 
    2  A    between atoms: C_8  and  N_9 
       I    between atoms: N_9  and  C_11 
    3  A    between atoms: C_11  and  C_13 
    4  A    between atoms: C_14  and  C_15 
    5  A    between atoms: C_15  and  N_16 
    6  A    between atoms: C_19  and  N_20 
    7  A    between atoms: N_20  and  C_22 

>  <TORSDO>
F 7

$$$$
resistance_project/docking/8faf60323ce63d5a/P00533_WT/docked/molecule_0006_out.pdbqt
 OpenBabel09142609533D

 51 53  0  0  0  0  0  0  0  0999 V2000
    0.9420   52.2510  -22.0860 C   0  0  0  0  0  0  0  0  0  0  0  0
    1.2700   52.9580  -23.2380 C   0  0  0  0  0  0  0  0  0  0  0  0
    0.4160   52.9760  -24.3000 C   0  0  0  0  0  0  0  0  0  0  0  0
   -0.7800   52.2880  -24.2230 C   0  0  0  0  0  0  0  0  0  0  0  0
   -1.1220   51.5790  -23.0810 C   0  0  0  0  0  0  0  0  0  0  0  0
   -0.2520   51.5620  -22.0050 C   0  0  0  0  0  0  0  0  0  0  0  0
   -1.6010   52.3320  -25.3320 C   0  0  0  0  0  0  0  0  0  0  0  0
   -1.2200   53.0330  -26.4340 N   0  0  0  0  0  0  0  0  0  0  0  0
   -1.8340   53.0580  -27.2470 H   0  0  0  0  0  0  0  0  0  0  0  0
   -0.0490   53.6920  -26.4740 C   0  0  0  0  0  0  0  0  0  0  0  0
    0.7690   53.6610  -25.3990 N   0  0  0  0  0  0  0  0  0  0  0  0
    1.6590   54.1600  -25.4230 H   0  0  0  0  0  0  0  0  0  0  0  0
   -0.5310   50.8560  -20.7980 N   0  0  0  0  0  0  0  0  0  0  0  0
   -1.2020   51.4850  -19.7050 C   0  0  0  0  0  0  0  0  0  0  0  0
   -1.6130   52.6710  -19.7400 O   0  0  0  0  0  0  0  0  0  0  0  0
   -0.2460   49.8800  -20.7140 H   0  0  0  0  0  0  0  0  0  0  0  0
   -1.4120   50.7130  -18.5060 C   0  0  0  0  0  0  0  0  0  0  0  0
   -1.6110   50.0620  -17.4850 C   0  0  0  0  0  0  0  0  0  0  0  0
   -1.8270   49.2740  -16.2690 C   0  0  0  0  0  0  0  0  0  0  0  0
   -2.2080   50.1670  -15.1940 N   0  0  0  0  0  0  0  0  0  0  0  0
   -2.8520   49.3630  -14.1730 C   0  0  0  0  0  0  0  0  0  0  0  0
   -0.9920   50.7130  -14.6260 C   0  0  0  0  0  0  0  0  0  0  0  0
    1.8190   52.2410  -21.0160 O   0  0  0  0  0  0  0  0  0  0  0  0
    2.0210   53.4080  -20.2510 C   0  0  0  0  0  0  0  0  0  0  0  0
   -2.8730   51.6480  -25.3330 N   0  0  0  0  0  0  0  0  0  0  0  0
   -3.6670   52.0410  -24.8270 H   0  0  0  0  0  0  0  0  0  0  0  0
   -3.0140   50.4060  -26.0530 C   0  0  0  0  0  0  0  0  0  0  0  0
   -3.4970   50.3430  -27.3290 C   0  0  0  0  0  0  0  0  0  0  0  0
   -3.6050   49.0980  -27.9220 C   0  0  0  0  0  0  0  0  0  0  0  0
   -4.2170   48.9560  -29.5560 Cl  0  0  0  0  0  0  0  0  0  0  0  0
   -3.2470   47.9330  -27.2800 C   0  0  0  0  0  0  0  0  0  0  0  0
   -3.3630   46.7030  -27.8800 F   0  0  0  0  0  0  0  0  0  0  0  0
   -2.7580   48.0060  -25.9900 C   0  0  0  0  0  0  0  0  0  0  0  0
   -2.6540   49.2340  -25.4130 C   0  0  0  0  0  0  0  0  0  0  0  0
    2.1639   53.4712  -23.2888 H   0  0  0  0  0  0  0  0  0  0  0  0
   -1.2696   50.5618  -23.3784 H   0  0  0  0  0  0  0  0  0  0  0  0
   -0.2769   54.7204  -26.6621 H   0  0  0  0  0  0  0  0  0  0  0  0
   -0.9247   48.7616  -16.0078 H   0  0  0  0  0  0  0  0  0  0  0  0
   -2.6017   48.5549  -16.4353 H   0  0  0  0  0  0  0  0  0  0  0  0
   -3.7558   48.9455  -14.5652 H   0  0  0  0  0  0  0  0  0  0  0  0
   -3.0805   49.9770  -13.3270 H   0  0  0  0  0  0  0  0  0  0  0  0
   -2.1949   48.5734  -13.8736 H   0  0  0  0  0  0  0  0  0  0  0  0
   -0.4939   51.3127  -15.3589 H   0  0  0  0  0  0  0  0  0  0  0  0
   -0.3492   49.9130  -14.3231 H   0  0  0  0  0  0  0  0  0  0  0  0
   -1.2348   51.3165  -13.7765 H   0  0  0  0  0  0  0  0  0  0  0  0
    2.7283   53.2069  -19.4737 H   0  0  0  0  0  0  0  0  0  0  0  0
    1.0923   53.7155  -19.8175 H   0  0  0  0  0  0  0  0  0  0  0  0
    2.3957   54.1872  -20.8813 H   0  0  0  0  0  0  0  0  0  0  0  0
   -3.7731   51.1987  -27.8356 H   0  0  0  0  0  0  0  0  0  0  0  0
   -2.4796   47.1539  -25.4787 H   0  0  0  0  0  0  0  0  0  0  0  0
   -2.2883   49.2937  -24.4498 H   0  0  0  0  0  0  0  0  0  0  0  0
  1  6  2  0  0  0  0
  1 23  1  0  0  0  0
  2  1  1  0  0  0  0
  2 35  1  0  0  0  0
  3  4  1  0  0  0  0
  3  2  2  0  0  0  0
  4  5  1  0  0  0  0
  5  6  1  0  0  0  0
  5 36  1  0  0  0  0
  6 13  1  0  0  0  0
  7  4  2  0  0  0  0
  8  7  1  0  0  0  0
  9  8  1  0  0  0  0
 10  8  1  0  0  0  0
 10 11  1  0  0  0  0
 10 37  1  0  0  0  0
 11  3  1  0  0  0  0
 12 11  1  0  0  0  0
 13 16  1  0  0  0  0
 13 14  1  0  0  0  0
 14 17  1  0  0  0  0
 15 14  2  0  0  0  0
 17 18  3  0  0  0  0
 18 19  1  0  0  0  0
 19 20  1  0  0  0  0
 19 38  1  0  0  0  0
 19 39  1  0  0  0  0
 20 22  1  0  0  0  0
 20 21  1  0  0  0  0
 21 40  1  0  0  0  0
 21 41  1  0  0  0  0
 21 42  1  0  0  0  0
 22 43  1  0  0  0  0
 22 44  1  0  0  0  0
 22 45  1  0  0  0  0
 23 24  1  0  0  0  0
 24 46  1  0  0  0  0
 24 47  1  0  0  0  0
 24 48  1  0  0  0  0
 25  7  1  0  0  0  0
 25 26  1  0  0  0  0
 27 34  2  0  0  0  0
 27 25  1  0  0  0  0
 28 27  1  0  0  0  0
 28 49  1  0  0  0  0
 29 28  2  0  0  0  0
 29 31  1  0  0  0  0
 30 29  1  0  0  0  0
 31 33  2  0  0  0  0
 32 31  1  0  0  0  0
 33 34  1  0  0  0  0
 33 50  1  0  0  0  0
 34 51  1  0  0  0  0
M  END
>  <REMARK>
 VINA RESULT:      -6.9      3.706      5.097
  7 active torsions:
  status: ('A' for Active; 'I' for Inactive)
    1  A    between atoms: O_2  and  C_3 
    2  A    between atoms: C_8  and  N_9 
       I    between atoms: N_9  and  C_11 
    3  A    between atoms: C_11  and  C_13 
    4  A    between atoms: C_14  and  C_15 
    5  A    between atoms: C_15  and  N_16 
    6  A    between atoms: C_19  and  N_20 
    7  A    between atoms: N_20  and  C_22 

>  <TORSDO>
F 7

$$$$
resistance_project/docking/8faf60323ce63d5a/P00533_WT/docked/molecule_0006_out.pdbqt
 OpenBabel09142609533D

 51 53  0  0  0  0  0  0  0  0999 V2000
   -0.4260   52.1720  -22.7810 C   0  0  0  0  0  0  0  0  0  0  0  0
   -0.8160   52.3070  -24.1100 C   0  0  0  0  0  0  0  0  0  0  0  0
   -2.1010   52.0460  -24.4790 C   0  0  0  0  0  0  0  0  0  0  0  0
   -3.0160   51.6480  -23.5230 C   0  0  0  0  0  0  0  0  0  0  0  0
   -2.6440   51.5090  -22.1940 C   0  0  0  0  0  0  0  0  0  0  0  0
   -1.3370   51.7740  -21.8230 C   0  0  0  0  0  0  0  0  0  0  0  0
   -4.3010   51.3870  -23.9550 C   0  0  0  0  0  0  0  0  0  0  0  0
   -4.6190   51.5270  -25.2710 N   0  0  0  0  0  0  0  0  0  0  0  0
   -5.5710   51.3310  -25.5780 H   0  0  0  0  0  0  0  0  0  0  0  0
   -3.7030   51.9180  -26.1740 C   0  0  0  0  0  0  0  0  0  0  0  0
   -2.4400   52.1780  -25.7710 N   0  0  0  0  0  0  0  0  0  0  0  0
   -1.7410   52.4750  -26.4520 H   0  0  0  0  0  0  0  0  0  0  0  0
   -0.8780   51.6520  -20.4790 N   0  0  0  0  0  0  0  0  0  0  0  0
   -0.3510   50.4210  -19.9800 C   0  0  0  0  0  0  0  0  0  0  0  0
   -0.2280   49.3890  -20.6850 O   0  0  0  0  0  0  0  0  0  0  0  0
   -0.9250   52.4610  -19.8600 H   0  0  0  0  0  0  0  0  0  0  0  0
    0.0580   50.3700  -18.5990 C   0  0  0  0  0  0  0  0  0  0  0  0
    0.4160   50.3100  -17.4270 C   0  0  0  0  0  0  0  0  0  0  0  0
    0.8350   50.2600  -16.0240 C   0  0  0  0  0  0  0  0  0  0  0  0
    0.8960   51.6110  -15.5060 N   0  0  0  0  0  0  0  0  0  0  0  0
    1.2200   51.5180  -14.0950 C   0  0  0  0  0  0  0  0  0  0  0  0
    1.9950   52.2850  -16.1680 C   0  0  0  0  0  0  0  0  0  0  0  0
    0.8820   52.4390  -22.4210 O   0  0  0  0  0  0  0  0  0  0  0  0
    1.2840   53.7590  -22.1270 C   0  0  0  0  0  0  0  0  0  0  0  0
   -5.3220   50.9740  -23.0210 N   0  0  0  0  0  0  0  0  0  0  0  0
   -5.6790   51.6310  -22.3280 H   0  0  0  0  0  0  0  0  0  0  0  0
   -5.8330   49.6260  -23.0740 C   0  0  0  0  0  0  0  0  0  0  0  0
   -5.0250   48.5260  -23.0120 C   0  0  0  0  0  0  0  0  0  0  0  0
   -5.6190   47.2790  -23.0860 C   0  0  0  0  0  0  0  0  0  0  0  0
   -4.6330   45.8340  -23.0110 Cl  0  0  0  0  0  0  0  0  0  0  0  0
   -6.9790   47.1070  -23.2190 C   0  0  0  0  0  0  0  0  0  0  0  0
   -7.5540   45.8630  -23.2950 F   0  0  0  0  0  0  0  0  0  0  0  0
   -7.7890   48.2250  -23.2790 C   0  0  0  0  0  0  0  0  0  0  0  0
   -7.1980   49.4490  -23.2050 C   0  0  0  0  0  0  0  0  0  0  0  0
   -0.1286   52.6062  -24.8192 H   0  0  0  0  0  0  0  0  0  0  0  0
   -2.8470   50.4954  -21.9179 H   0  0  0  0  0  0  0  0  0  0  0  0
   -3.6416   51.1439  -26.9101 H   0  0  0  0  0  0  0  0  0  0  0  0
    1.8003   49.8039  -15.9531 H   0  0  0  0  0  0  0  0  0  0  0  0
    0.1343   49.6844  -15.4559 H   0  0  0  0  0  0  0  0  0  0  0  0
    1.2740   52.5010  -13.6759 H   0  0  0  0  0  0  0  0  0  0  0  0
    2.1638   51.0278  -13.9773 H   0  0  0  0  0  0  0  0  0  0  0  0
    0.4612   50.9566  -13.5911 H   0  0  0  0  0  0  0  0  0  0  0  0
    1.7841   52.3687  -17.2137 H   0  0  0  0  0  0  0  0  0  0  0  0
    2.8942   51.7218  -16.0294 H   0  0  0  0  0  0  0  0  0  0  0  0
    2.1181   53.2621  -15.7497 H   0  0  0  0  0  0  0  0  0  0  0  0
    2.3230   53.7668  -21.8713 H   0  0  0  0  0  0  0  0  0  0  0  0
    0.7112   54.1312  -21.3035 H   0  0  0  0  0  0  0  0  0  0  0  0
    1.1227   54.3800  -22.9833 H   0  0  0  0  0  0  0  0  0  0  0  0
   -4.0023   48.6226  -22.9129 H   0  0  0  0  0  0  0  0  0  0  0  0
   -8.8123   48.1346  -23.3771 H   0  0  0  0  0  0  0  0  0  0  0  0
   -7.7989   50.2869  -23.2489 H   0  0  0  0  0  0  0  0  0  0  0  0
  1 23  1  0  0  0  0
  1  6  2  0  0  0  0
  2  1  1  0  0  0  0
  2 35  1  0  0  0  0
  3  2  2  0  0  0  0
  3  4  1  0  0  0  0
  4  5  1  0  0  0  0
  5  6  1  0  0  0  0
  5 36  1  0  0  0  0
  6 13  1  0  0  0  0
  7  4  2  0  0  0  0
  7 25  1  0  0  0  0
  8  7  1  0  0  0  0
  9  8  1  0  0  0  0
 10 11  1  0  0  0  0
 10  8  1  0  0  0  0
 10 37  1  0  0  0  0
 11  3  1  0  0  0  0
 12 11  1  0  0  0  0
 13 14  1  0  0  0  0
 13 16  1  0  0  0  0
 14 17  1  0  0  0  0
 15 14  2  0  0  0  0
 17 18  3  0  0  0  0
 18 19  1  0  0  0  0
 19 20  1  0  0  0  0
 19 38  1  0  0  0  0
 19 39  1  0  0  0  0
 20 21  1  0  0  0  0
 21 40  1  0  0  0  0
 21 41  1  0  0  0  0
 21 42  1  0  0  0  0
 22 20  1  0  0  0  0
 22 43  1  0  0  0  0
 22 44  1  0  0  0  0
 22 45  1  0  0  0  0
 23 24  1  0  0  0  0
 24 46  1  0  0  0  0
 24 47  1  0  0  0  0
 24 48  1  0  0  0  0
 25 26  1  0  0  0  0
 27 25  1  0  0  0  0
 27 28  1  0  0  0  0
 28 49  1  0  0  0  0
 29 28  2  0  0  0  0
 29 30  1  0  0  0  0
 31 29  1  0  0  0  0
 32 31  1  0  0  0  0
 33 31  2  0  0  0  0
 33 34  1  0  0  0  0
 33 50  1  0  0  0  0
 34 27  2  0  0  0  0
 34 51  1  0  0  0  0
M  END
>  <REMARK>
 VINA RESULT:      -6.8      4.694      7.380
  7 active torsions:
  status: ('A' for Active; 'I' for Inactive)
    1  A    between atoms: O_2  and  C_3 
    2  A    between atoms: C_8  and  N_9 
       I    between atoms: N_9  and  C_11 
    3  A    between atoms: C_11  and  C_13 
    4  A    between atoms: C_14  and  C_15 
    5  A    between atoms: C_15  and  N_16 
    6  A    between atoms: C_19  and  N_20 
    7  A    between atoms: N_20  and  C_22 

>  <TORSDO>
F 7

$$$$
resistance_project/docking/8faf60323ce63d5a/P00533_WT/docked/molecule_0006_out.pdbqt
 OpenBabel09142609533D

 51 53  0  0  0  0  0  0  0  0999 V2000
   -0.1500   52.9010  -25.6170 C   0  0  0  0  0  0  0  0  0  0  0  0
    0.5720   53.8500  -24.9020 C   0  0  0  0  0  0  0  0  0  0  0  0
    0.9260   53.6130  -23.6070 C   0  0  0  0  0  0  0  0  0  0  0  0
    0.5640   52.4200  -23.0110 C   0  0  0  0  0  0  0  0  0  0  0  0
   -0.1540   51.4620  -23.7110 C   0  0  0  0  0  0  0  0  0  0  0  0
   -0.5140   51.7070  -25.0250 C   0  0  0  0  0  0  0  0  0  0  0  0
    0.9400   52.2360  -21.6950 C   0  0  0  0  0  0  0  0  0  0  0  0
    1.6370   53.2080  -21.0450 N   0  0  0  0  0  0  0  0  0  0  0  0
    1.9090   53.0620  -20.0730 H   0  0  0  0  0  0  0  0  0  0  0  0
    1.9740   54.3570  -21.6570 C   0  0  0  0  0  0  0  0  0  0  0  0
    1.6140   54.5550  -22.9440 N   0  0  0  0  0  0  0  0  0  0  0  0
    1.8670   55.4250  -23.4140 H   0  0  0  0  0  0  0  0  0  0  0  0
   -1.2540   50.7750  -25.8090 N   0  0  0  0  0  0  0  0  0  0  0  0
   -2.6830   50.7540  -25.7910 C   0  0  0  0  0  0  0  0  0  0  0  0
   -3.3740   51.5610  -25.1210 O   0  0  0  0  0  0  0  0  0  0  0  0
   -0.7540   50.1080  -26.3960 H   0  0  0  0  0  0  0  0  0  0  0  0
   -3.3550   49.7560  -26.5830 C   0  0  0  0  0  0  0  0  0  0  0  0
   -3.9090   48.8970  -27.2620 C   0  0  0  0  0  0  0  0  0  0  0  0
   -4.5920   47.8800  -28.0640 C   0  0  0  0  0  0  0  0  0  0  0  0
   -5.3030   48.5350  -29.1430 N   0  0  0  0  0  0  0  0  0  0  0  0
   -4.3250   48.8840  -30.1550 C   0  0  0  0  0  0  0  0  0  0  0  0
   -6.2110   47.5640  -29.7220 C   0  0  0  0  0  0  0  0  0  0  0  0
   -0.5040   53.1560  -26.9290 O   0  0  0  0  0  0  0  0  0  0  0  0
    0.1360   54.1850  -27.6510 C   0  0  0  0  0  0  0  0  0  0  0  0
    0.6110   51.0160  -20.9990 N   0  0  0  0  0  0  0  0  0  0  0  0
    1.3490   50.3690  -20.7200 H   0  0  0  0  0  0  0  0  0  0  0  0
   -0.7680   50.7150  -20.7000 C   0  0  0  0  0  0  0  0  0  0  0  0
   -1.3440   49.5130  -20.9980 C   0  0  0  0  0  0  0  0  0  0  0  0
   -2.6790   49.3360  -20.6810 C   0  0  0  0  0  0  0  0  0  0  0  0
   -3.4690   47.8160  -21.0390 Cl  0  0  0  0  0  0  0  0  0  0  0  0
   -3.4400   50.3160  -20.0820 C   0  0  0  0  0  0  0  0  0  0  0  0
   -4.7650   50.1270  -19.7770 F   0  0  0  0  0  0  0  0  0  0  0  0
   -2.8490   51.5280  -19.7830 C   0  0  0  0  0  0  0  0  0  0  0  0
   -1.5350   51.6960  -20.0980 C   0  0  0  0  0  0  0  0  0  0  0  0
    0.8412   54.7380  -25.3537 H   0  0  0  0  0  0  0  0  0  0  0  0
    0.4356   50.5691  -23.7109 H   0  0  0  0  0  0  0  0  0  0  0  0
    1.5410   55.1521  -21.0867 H   0  0  0  0  0  0  0  0  0  0  0  0
   -3.8730   47.1987  -28.4687 H   0  0  0  0  0  0  0  0  0  0  0  0
   -5.2814   47.3372  -27.4516 H   0  0  0  0  0  0  0  0  0  0  0  0
   -4.8152   49.3719  -30.9715 H   0  0  0  0  0  0  0  0  0  0  0  0
   -3.8438   47.9956  -30.5073 H   0  0  0  0  0  0  0  0  0  0  0  0
   -3.5943   49.5420  -29.7330 H   0  0  0  0  0  0  0  0  0  0  0  0
   -6.7536   48.0176  -30.5250 H   0  0  0  0  0  0  0  0  0  0  0  0
   -6.8972   47.2268  -28.9735 H   0  0  0  0  0  0  0  0  0  0  0  0
   -5.6522   46.7311  -30.0948 H   0  0  0  0  0  0  0  0  0  0  0  0
   -0.2684   54.2311  -28.6406 H   0  0  0  0  0  0  0  0  0  0  0  0
    1.1857   53.9841  -27.7036 H   0  0  0  0  0  0  0  0  0  0  0  0
   -0.0238   55.1203  -27.1565 H   0  0  0  0  0  0  0  0  0  0  0  0
   -0.7997   48.7594  -21.4462 H   0  0  0  0  0  0  0  0  0  0  0  0
   -3.3880   52.2847  -19.3336 H   0  0  0  0  0  0  0  0  0  0  0  0
   -1.0893   52.6001  -19.8766 H   0  0  0  0  0  0  0  0  0  0  0  0
  1  6  2  0  0  0  0
  1  2  1  0  0  0  0
  2  3  2  0  0  0  0
  2 35  1  0  0  0  0
  3  4  1  0  0  0  0
  3 11  1  0  0  0  0
  4  7  2  0  0  0  0
  5  4  1  0  0  0  0
  5 36  1  0  0  0  0
  6  5  1  0  0  0  0
  7  8  1  0  0  0  0
  7 25  1  0  0  0  0
  8  9  1  0  0  0  0
 10  8  1  0  0  0  0
 10 37  1  0  0  0  0
 11 10  1  0  0  0  0
 12 11  1  0  0  0  0
 13 14  1  0  0  0  0
 13  6  1  0  0  0  0
 14 15  2  0  0  0  0
 16 13  1  0  0  0  0
 17 14  1  0  0  0  0
 18 17  3  0  0  0  0
 19 18  1  0  0  0  0
 19 38  1  0  0  0  0
 19 39  1  0  0  0  0
 20 19  1  0  0  0  0
 21 20  1  0  0  0  0
 21 40  1  0  0  0  0
 21 41  1  0  0  0  0
 21 42  1  0  0  0  0
 22 20  1  0  0  0  0
 22 43  1  0  0  0  0
 22 44  1  0  0  0  0
 22 45  1  0  0  0  0
 23  1  1  0  0  0  0
 24 23  1  0  0  0  0
 24 46  1  0  0  0  0
 24 47  1  0  0  0  0
 24 48  1  0  0  0  0
 25 26  1  0  0  0  0
 25 27  1  0  0  0  0
 27 34  1  0  0  0  0
 28 27  2  0  0  0  0
 28 29  1  0  0  0  0
 28 49  1  0  0  0  0
 29 31  2  0  0  0  0
 30 29  1  0  0  0  0
 31 33  1  0  0  0  0
 31 32  1  0  0  0  0
 33 50  1  0  0  0  0
 34 33  2  0  0  0  0
 34 51  1  0  0  0  0
M  END
>  <REMARK>
 VINA RESULT:      -6.8      4.915      7.618
  7 active torsions:
  status: ('A' for Active; 'I' for Inactive)
    1  A    between atoms: O_2  and  C_3 
    2  A    between atoms: C_8  and  N_9 
       I    between atoms: N_9  and  C_11 
    3  A    between atoms: C_11  and  C_13 
    4  A    between atoms: C_14  and  C_15 
    5  A    between atoms: C_15  and  N_16 
    6  A    between atoms: C_19  and  N_20 
    7  A    between atoms: N_20  and  C_22 

>  <TORSDO>
F 7

$$$$
resistance_project/docking/8faf60323ce63d5a/P00533_WT/docked/molecule_0006_out.pdbqt
 OpenBabel09142609533D

 51 53  0  0  0  0  0  0  0  0999 V2000
    0.2680   52.5110  -24.7080 C   0  0  0  0  0  0  0  0  0  0  0  0
    0.9330   53.2590  -23.7420 C   0  0  0  0  0  0  0  0  0  0  0  0
    0.7560   52.9850  -22.4190 C   0  0  0  0  0  0  0  0  0  0  0  0
   -0.0870   51.9560  -22.0440 C   0  0  0  0  0  0  0  0  0  0  0  0
   -0.7550   51.2000  -22.9950 C   0  0  0  0  0  0  0  0  0  0  0  0
   -0.5750   51.4820  -24.3380 C   0  0  0  0  0  0  0  0  0  0  0  0
   -0.2360   51.7290  -20.6900 C   0  0  0  0  0  0  0  0  0  0  0  0
    0.4330   52.5030  -19.7930 N   0  0  0  0  0  0  0  0  0  0  0  0
    0.3140   52.3270  -18.7950 H   0  0  0  0  0  0  0  0  0  0  0  0
    1.2460   53.4960  -20.1930 C   0  0  0  0  0  0  0  0  0  0  0  0
    1.4060   53.7330  -21.5130 N   0  0  0  0  0  0  0  0  0  0  0  0
    2.0220   54.4850  -21.8230 H   0  0  0  0  0  0  0  0  0  0  0  0
   -1.2280   50.7520  -25.3740 N   0  0  0  0  0  0  0  0  0  0  0  0
   -2.5290   51.1180  -25.8360 C   0  0  0  0  0  0  0  0  0  0  0  0
   -3.1640   52.1080  -25.3940 O   0  0  0  0  0  0  0  0  0  0  0  0
   -0.7570   49.9510  -25.7940 H   0  0  0  0  0  0  0  0  0  0  0  0
   -3.1360   50.3070  -26.8610 C   0  0  0  0  0  0  0  0  0  0  0  0
   -3.6470   49.6300  -27.7480 C   0  0  0  0  0  0  0  0  0  0  0  0
   -4.2600   48.8030  -28.7900 C   0  0  0  0  0  0  0  0  0  0  0  0
   -3.3630   47.7110  -29.1090 N   0  0  0  0  0  0  0  0  0  0  0  0
   -3.4090   46.7780  -27.9990 C   0  0  0  0  0  0  0  0  0  0  0  0
   -3.8940   47.0360  -30.2770 C   0  0  0  0  0  0  0  0  0  0  0  0
    0.4560   52.8010  -26.0470 O   0  0  0  0  0  0  0  0  0  0  0  0
    0.0610   54.0510  -26.5670 C   0  0  0  0  0  0  0  0  0  0  0  0
   -1.0910   50.6690  -20.2120 N   0  0  0  0  0  0  0  0  0  0  0  0
   -1.6530   50.1280  -20.8690 H   0  0  0  0  0  0  0  0  0  0  0  0
   -1.1450   50.3780  -18.8000 C   0  0  0  0  0  0  0  0  0  0  0  0
   -2.2030   50.7330  -18.0120 C   0  0  0  0  0  0  0  0  0  0  0  0
   -2.1460   50.4190  -16.6660 C   0  0  0  0  0  0  0  0  0  0  0  0
   -3.4740   50.8480  -15.6100 Cl  0  0  0  0  0  0  0  0  0  0  0  0
   -1.0720   49.7690  -16.0970 C   0  0  0  0  0  0  0  0  0  0  0  0
   -1.0280   49.4680  -14.7590 F   0  0  0  0  0  0  0  0  0  0  0  0
   -0.0070   49.4130  -16.9010 C   0  0  0  0  0  0  0  0  0  0  0  0
   -0.0700   49.7250  -18.2240 C   0  0  0  0  0  0  0  0  0  0  0  0
    1.5630   54.0246  -24.0285 H   0  0  0  0  0  0  0  0  0  0  0  0
   -0.4588   50.1824  -22.8481 H   0  0  0  0  0  0  0  0  0  0  0  0
    0.8720   54.3990  -19.7577 H   0  0  0  0  0  0  0  0  0  0  0  0
   -5.1912   48.4117  -28.4369 H   0  0  0  0  0  0  0  0  0  0  0  0
   -4.4382   49.3936  -29.6642 H   0  0  0  0  0  0  0  0  0  0  0  0
   -2.7563   45.9539  -28.1985 H   0  0  0  0  0  0  0  0  0  0  0  0
   -4.4094   46.4190  -27.8761 H   0  0  0  0  0  0  0  0  0  0  0  0
   -3.0952   47.2730  -27.1038 H   0  0  0  0  0  0  0  0  0  0  0  0
   -3.8725   47.7019  -31.1143 H   0  0  0  0  0  0  0  0  0  0  0  0
   -4.9029   46.7345  -30.0868 H   0  0  0  0  0  0  0  0  0  0  0  0
   -3.2985   46.1734  -30.4920 H   0  0  0  0  0  0  0  0  0  0  0  0
    0.2852   54.0893  -27.6125 H   0  0  0  0  0  0  0  0  0  0  0  0
    0.5894   54.8312  -26.0601 H   0  0  0  0  0  0  0  0  0  0  0  0
   -0.9913   54.1808  -26.4229 H   0  0  0  0  0  0  0  0  0  0  0  0
   -3.0209   51.2212  -18.4093 H   0  0  0  0  0  0  0  0  0  0  0  0
    0.8133   48.9242  -16.5095 H   0  0  0  0  0  0  0  0  0  0  0  0
    0.7241   49.4612  -18.8281 H   0  0  0  0  0  0  0  0  0  0  0  0
  1  6  2  0  0  0  0
  1  2  1  0  0  0  0
  2  3  2  0  0  0  0
  2 35  1  0  0  0  0
  3  4  1  0  0  0  0
  3 11  1  0  0  0  0
  4  7  2  0  0  0  0
  5  4  1  0  0  0  0
  5 36  1  0  0  0  0
  6  5  1  0  0  0  0
  7 25  1  0  0  0  0
  7  8  1  0  0  0  0
  8  9  1  0  0  0  0
 10  8  1  0  0  0  0
 10 37  1  0  0  0  0
 11 10  1  0  0  0  0
 12 11  1  0  0  0  0
 13  6  1  0  0  0  0
 14 15  2  0  0  0  0
 14 13  1  0  0  0  0
 16 13  1  0  0  0  0
 17 14  1  0  0  0  0
 18 17  3  0  0  0  0
 19 18  1  0  0  0  0
 19 38  1  0  0  0  0
 19 39  1  0  0  0  0
 20 19  1  0  0  0  0
 20 21  1  0  0  0  0
 21 40  1  0  0  0  0
 21 41  1  0  0  0  0
 21 42  1  0  0  0  0
 22 20  1  0  0  0  0
 22 43  1  0  0  0  0
 22 44  1  0  0  0  0
 22 45  1  0  0  0  0
 23  1  1  0  0  0  0
 24 23  1  0  0  0  0
 24 46  1  0  0  0  0
 24 47  1  0  0  0  0
 24 48  1  0  0  0  0
 25 27  1  0  0  0  0
 26 25  1  0  0  0  0
 27 34  2  0  0  0  0
 27 28  1  0  0  0  0
 28 29  2  0  0  0  0
 28 49  1  0  0  0  0
 29 31  1  0  0  0  0
 29 30  1  0  0  0  0
 31 32  1  0  0  0  0
 33 31  2  0  0  0  0
 33 50  1  0  0  0  0
 34 33  1  0  0  0  0
 34 51  1  0  0  0  0
M  END
>  <REMARK>
 VINA RESULT:      -6.7      5.259      8.142
  7 active torsions:
  status: ('A' for Active; 'I' for Inactive)
    1  A    between atoms: O_2  and  C_3 
    2  A    between atoms: C_8  and  N_9 
       I    between atoms: N_9  and  C_11 
    3  A    between atoms: C_11  and  C_13 
    4  A    between atoms: C_14  and  C_15 
    5  A    between atoms: C_15  and  N_16 
    6  A    between atoms: C_19  and  N_20 
    7  A    between atoms: N_20  and  C_22 

>  <TORSDO>
F 7

$$$$
