resistance_project/docking/8faf60323ce63d5a/P00533_WT/docked/molecule_0012_out.pdbqt
 OpenBabel09142609553D

 56 59  0  0  1  0  0  0  0  0999 V2000
   -0.1000   49.9330  -16.8350 C   0  0  0  0  0  0  0  0  0  0  0  0
    0.5670   50.8570  -16.0410 C   0  0  1  0  0  0  0  0  0  0  0  0
    1.2400   51.9110  -16.6190 C   0  0  0  0  0  0  0  0  0  0  0  0
    1.2380   52.0300  -18.0100 C   0  0  0  0  0  0  0  0  0  0  0  0
    1.8790   53.0390  -18.6270 N   0  0  0  0  0  0  0  0  0  0  0  0
    2.3770   53.7320  -18.0670 H   0  0  0  0  0  0  0  0  0  0  0  0
    1.8770   53.1540  -19.9680 C   0  0  0  0  0  0  0  0  0  0  0  0
    1.2330   52.2620  -20.7390 N   0  0  0  0  0  0  0  0  0  0  0  0
    1.2490   52.3740  -21.7520 H   0  0  0  0  0  0  0  0  0  0  0  0
    0.5720   51.2310  -20.2040 C   0  0  0  0  0  0  0  0  0  0  0  0
    0.5820   51.1240  -18.8200 C   0  0  0  0  0  0  0  0  0  0  0  0
   -0.0780   50.0860  -18.2070 C   0  0  0  0  0  0  0  0  0  0  0  0
   -0.1270   50.2520  -20.9260 N   0  0  0  0  0  0  0  0  0  0  0  0
    0.1620   49.2750  -20.8720 H   0  0  0  0  0  0  0  0  0  0  0  0
   -1.2240   50.6160  -21.7200 C   0  0  0  0  0  0  0  0  0  0  0  0
   -1.0900   51.1340  -23.0080 C   0  0  0  0  0  0  0  0  0  0  0  0
    0.1570   51.2980  -23.5230 F   0  0  0  0  0  0  0  0  0  0  0  0
   -2.2320   51.4740  -23.7370 C   0  0  0  0  0  0  0  0  0  0  0  0
   -3.5090   51.3010  -23.1940 C   0  0  0  0  0  0  0  0  0  0  0  0
   -5.0720   51.7730  -24.2130 Br  0  0  0  0  0  0  0  0  0  0  0  0
   -3.6390   50.7810  -21.9050 C   0  0  0  0  0  0  0  0  0  0  0  0
   -2.5000   50.4420  -21.1760 C   0  0  0  0  0  0  0  0  0  0  0  0
   -2.6210   49.9320  -19.9100 F   0  0  0  0  0  0  0  0  0  0  0  0
   -0.7820   48.8690  -16.2910 O   0  0  0  0  0  0  0  0  0  0  0  0
   -1.8600   48.3180  -17.0230 C   0  0  0  0  0  0  0  0  0  0  0  0
    0.5050   50.6450  -14.6710 O   0  0  0  0  0  0  0  0  0  0  0  0
   -0.4400   51.3080  -13.8850 C   0  0  0  0  0  0  0  0  0  0  0  0
   -0.8430   50.4870  -12.6660 C   0  0  1  0  0  0  0  0  0  0  0  0
   -1.8950   51.2840  -11.9230 C   0  0  0  0  0  0  0  0  0  0  0  0
   -2.6960   51.9510  -12.9320 N   0  0  0  0  0  0  0  0  0  0  0  0
   -3.9070   52.5140  -12.3680 C   0  0  0  0  0  0  0  0  0  0  0  0
   -2.9640   50.9940  -13.9750 C   0  0  0  0  0  0  0  0  0  0  0  0
   -2.7710   49.5760  -13.5340 C   0  0  0  0  0  0  0  0  0  0  0  0
   -1.4660   49.3100  -13.1280 O   0  0  0  0  0  0  0  0  0  0  0  0
    1.1718   51.7372  -15.9750 H   0  0  0  0  0  0  0  0  0  0  0  0
    1.7370   52.6006  -16.0339 H   0  0  0  0  0  0  0  0  0  0  0  0
    1.4524   54.1106  -20.1904 H   0  0  0  0  0  0  0  0  0  0  0  0
    2.9030   52.9844  -20.2197 H   0  0  0  0  0  0  0  0  0  0  0  0
   -0.5746   49.3967  -18.7928 H   0  0  0  0  0  0  0  0  0  0  0  0
   -2.1319   51.8582  -24.6896 H   0  0  0  0  0  0  0  0  0  0  0  0
   -4.5757   50.6479  -21.4928 H   0  0  0  0  0  0  0  0  0  0  0  0
   -2.2856   47.5046  -16.4733 H   0  0  0  0  0  0  0  0  0  0  0  0
   -1.5050   47.9628  -17.9678 H   0  0  0  0  0  0  0  0  0  0  0  0
   -2.6047   49.0698  -17.1815 H   0  0  0  0  0  0  0  0  0  0  0  0
   -1.3106   51.4977  -14.4774 H   0  0  0  0  0  0  0  0  0  0  0  0
   -0.0017   52.2209  -13.5394 H   0  0  0  0  0  0  0  0  0  0  0  0
    0.0021   50.2642  -12.0487 H   0  0  0  0  0  0  0  0  0  0  0  0
   -2.5076   50.6313  -11.3368 H   0  0  0  0  0  0  0  0  0  0  0  0
   -1.4459   51.9904  -11.2565 H   0  0  0  0  0  0  0  0  0  0  0  0
   -4.4695   52.9960  -13.1401 H   0  0  0  0  0  0  0  0  0  0  0  0
   -3.6506   53.2289  -11.6143 H   0  0  0  0  0  0  0  0  0  0  0  0
   -4.4947   51.7327  -11.9333 H   0  0  0  0  0  0  0  0  0  0  0  0
   -3.9771   51.1157  -14.2969 H   0  0  0  0  0  0  0  0  0  0  0  0
   -2.2676   51.1801  -14.7658 H   0  0  0  0  0  0  0  0  0  0  0  0
   -3.0139   48.9281  -14.3502 H   0  0  0  0  0  0  0  0  0  0  0  0
   -3.4103   49.4107  -12.6921 H   0  0  0  0  0  0  0  0  0  0  0  0
  1 24  1  0  0  0  0
  1  2  1  0  0  0  0
  2 26  1  0  0  0  0
  2 35  1  6  0  0  0
  3  2  1  0  0  0  0
  3 36  1  0  0  0  0
  4  3  2  0  0  0  0
  5  6  1  0  0  0  0
  5  4  1  0  0  0  0
  7  5  1  0  0  0  0
  7 37  1  0  0  0  0
  7 38  1  0  0  0  0
  8 10  1  0  0  0  0
  8  7  1  0  0  0  0
  9  8  1  0  0  0  0
 10 11  2  0  0  0  0
 11 12  1  0  0  0  0
 11  4  1  0  0  0  0
 12  1  2  0  0  0  0
 12 39  1  0  0  0  0
 13 14  1  0  0  0  0
 13 10  1  0  0  0  0
 15 22  1  0  0  0  0
 15 13  1  0  0  0  0
 16 15  2  0  0  0  0
 17 16  1  0  0  0  0
 18 19  2  0  0  0  0
 18 16  1  0  0  0  0
 18 40  1  0  0  0  0
 19 21  1  0  0  0  0
 20 19  1  0  0  0  0
 21 22  2  0  0  0  0
 21 41  1  0  0  0  0
 22 23  1  0  0  0  0
 25 24  1  0  0  0  0
 25 42  1  0  0  0  0
 25 43  1  0  0  0  0
 25 44  1  0  0  0  0
 26 27  1  0  0  0  0
 27 28  1  0  0  0  0
 27 45  1  0  0  0  0
 27 46  1  0  0  0  0
 28 29  1  0  0  0  0
 28 47  1  1  0  0  0
 29 48  1  0  0  0  0
 29 49  1  0  0  0  0
 30 31  1  0  0  0  0
 30 29  1  0  0  0  0
 31 50  1  0  0  0  0
 31 51  1  0  0  0  0
 31 52  1  0  0  0  0
 32 33  1  0  0  0  0
 32 30  1  0  0  0  0
 32 53  1  0  0  0  0
 32 54  1  0  0  0  0
 33 34  1  0  0  0  0
 33 55  1  0  0  0  0
 33 56  1  0  0  0  0
 34 28  1  0  0  0  0
M  END
>  <MODEL>
1

>  <REMARK>
 VINA RESULT:      -7.2      0.000      0.000
  6 active torsions:
  status: ('A' for Active; 'I' for Inactive)
    1  A    between atoms: O_2  and  C_3 
    2  A    between atoms: C_4  and  O_5 
    3  A    between atoms: O_5  and  C_6 
    4  A    between atoms: C_6  and  C_7 
    5  A    between atoms: C_21  and  N_22 
    6  A    between atoms: N_22  and  C_24 

>  <TORSDO>
F 6

$$$$
resistance_project/docking/8faf60323ce63d5a/P00533_WT/docked/molecule_0012_out.pdbqt
 OpenBabel09142609553D

 56 59  0  0  1  0  0  0  0  0999 V2000
    1.2080   51.4570  -16.5920 C   0  0  0  0  0  0  0  0  0  0  0  0
    1.2140   50.2600  -15.8870 C   0  0  2  0  0  0  0  0  0  0  0  0
    0.5080   49.1740  -16.3570 C   0  0  0  0  0  0  0  0  0  0  0  0
   -0.2080   49.3010  -17.5480 C   0  0  0  0  0  0  0  0  0  0  0  0
   -0.9150   48.2740  -18.0530 N   0  0  0  0  0  0  0  0  0  0  0  0
   -0.9270   47.3830  -17.5550 H   0  0  0  0  0  0  0  0  0  0  0  0
   -1.6050   48.3950  -19.2010 C   0  0  0  0  0  0  0  0  0  0  0  0
   -1.6130   49.5520  -19.8850 N   0  0  0  0  0  0  0  0  0  0  0  0
   -2.1460   49.6150  -20.7530 H   0  0  0  0  0  0  0  0  0  0  0  0
   -0.9370   50.6200  -19.4530 C   0  0  0  0  0  0  0  0  0  0  0  0
   -0.2290   50.4810  -18.2670 C   0  0  0  0  0  0  0  0  0  0  0  0
    0.4870   51.5410  -17.7660 C   0  0  0  0  0  0  0  0  0  0  0  0
   -0.8870   51.8650  -20.0960 N   0  0  0  0  0  0  0  0  0  0  0  0
   -1.0170   52.7230  -19.5600 H   0  0  0  0  0  0  0  0  0  0  0  0
   -0.6550   51.9310  -21.4780 C   0  0  0  0  0  0  0  0  0  0  0  0
   -1.6730   51.8130  -22.4250 C   0  0  0  0  0  0  0  0  0  0  0  0
   -2.9490   51.6240  -21.9970 F   0  0  0  0  0  0  0  0  0  0  0  0
   -1.3630   51.8890  -23.7850 C   0  0  0  0  0  0  0  0  0  0  0  0
   -0.0450   52.0830  -24.2110 C   0  0  0  0  0  0  0  0  0  0  0  0
    0.3650   52.1860  -26.0890 Br  0  0  0  0  0  0  0  0  0  0  0  0
    0.9700   52.2010  -23.2610 C   0  0  0  0  0  0  0  0  0  0  0  0
    0.6620   52.1250  -21.9030 C   0  0  0  0  0  0  0  0  0  0  0  0
    1.6550   52.2400  -20.9660 F   0  0  0  0  0  0  0  0  0  0  0  0
    1.9020   52.5610  -16.1510 O   0  0  0  0  0  0  0  0  0  0  0  0
    3.2250   52.7500  -16.6140 C   0  0  0  0  0  0  0  0  0  0  0  0
    1.9580   50.2430  -14.7160 O   0  0  0  0  0  0  0  0  0  0  0  0
    1.3320   50.2050  -13.4680 C   0  0  0  0  0  0  0  0  0  0  0  0
    1.3390   51.5680  -12.7860 C   0  0  1  0  0  0  0  0  0  0  0  0
    0.0130   52.2290  -13.1030 C   0  0  0  0  0  0  0  0  0  0  0  0
   -0.9820   51.1730  -13.1160 N   0  0  0  0  0  0  0  0  0  0  0  0
   -2.3290   51.7060  -13.1240 C   0  0  0  0  0  0  0  0  0  0  0  0
   -0.7280   50.3240  -11.9790 C   0  0  0  0  0  0  0  0  0  0  0  0
    0.1090   50.9870  -10.9290 C   0  0  0  0  0  0  0  0  0  0  0  0
    1.3700   51.3500  -11.3940 O   0  0  0  0  0  0  0  0  0  0  0  0
    0.8895   49.2432  -15.8108 H   0  0  0  0  0  0  0  0  0  0  0  0
    0.5088   48.2824  -15.8373 H   0  0  0  0  0  0  0  0  0  0  0  0
   -1.2209   47.6506  -19.8668 H   0  0  0  0  0  0  0  0  0  0  0  0
   -2.6205   48.3069  -18.8757 H   0  0  0  0  0  0  0  0  0  0  0  0
    0.4858   52.4323  -18.2862 H   0  0  0  0  0  0  0  0  0  0  0  0
   -2.1165   51.8008  -24.4847 H   0  0  0  0  0  0  0  0  0  0  0  0
    1.9465   52.3442  -23.5626 H   0  0  0  0  0  0  0  0  0  0  0  0
    3.6284   53.6439  -16.1860 H   0  0  0  0  0  0  0  0  0  0  0  0
    3.2208   52.8356  -17.6806 H   0  0  0  0  0  0  0  0  0  0  0  0
    3.8267   51.9135  -16.3257 H   0  0  0  0  0  0  0  0  0  0  0  0
    1.8461   49.5037  -12.8445 H   0  0  0  0  0  0  0  0  0  0  0  0
    0.3131   49.9145  -13.6172 H   0  0  0  0  0  0  0  0  0  0  0  0
    2.1697   52.1614  -13.1066 H   0  0  0  0  0  0  0  0  0  0  0  0
   -0.2271   52.9537  -12.3533 H   0  0  0  0  0  0  0  0  0  0  0  0
    0.0496   52.7373  -14.0438 H   0  0  0  0  0  0  0  0  0  0  0  0
   -2.4621   52.3262  -13.9857 H   0  0  0  0  0  0  0  0  0  0  0  0
   -2.4883   52.2860  -12.2391 H   0  0  0  0  0  0  0  0  0  0  0  0
   -3.0315   50.8995  -13.1531 H   0  0  0  0  0  0  0  0  0  0  0  0
   -0.2188   49.4455  -12.3164 H   0  0  0  0  0  0  0  0  0  0  0  0
   -1.6736   50.0920  -11.5352 H   0  0  0  0  0  0  0  0  0  0  0  0
    0.2288   50.3098  -10.1093 H   0  0  0  0  0  0  0  0  0  0  0  0
   -0.3955   51.8830  -10.6331 H   0  0  0  0  0  0  0  0  0  0  0  0
  1 24  1  0  0  0  0
  1  2  1  0  0  0  0
  2 26  1  0  0  0  0
  2 35  1  6  0  0  0
  3  2  1  0  0  0  0
  3 36  1  0  0  0  0
  4  3  2  0  0  0  0
  5  6  1  0  0  0  0
  5  4  1  0  0  0  0
  7  5  1  0  0  0  0
  7 37  1  0  0  0  0
  7 38  1  0  0  0  0
  8 10  1  0  0  0  0
  8  7  1  0  0  0  0
  9  8  1  0  0  0  0
 10 11  2  0  0  0  0
 11 12  1  0  0  0  0
 11  4  1  0  0  0  0
 12  1  2  0  0  0  0
 12 39  1  0  0  0  0
 13 14  1  0  0  0  0
 13 10  1  0  0  0  0
 15 13  1  0  0  0  0
 16 17  1  0  0  0  0
 16 15  2  0  0  0  0
 18 16  1  0  0  0  0
 18 40  1  0  0  0  0
 19 18  2  0  0  0  0
 19 21  1  0  0  0  0
 20 19  1  0  0  0  0
 21 22  2  0  0  0  0
 21 41  1  0  0  0  0
 22 15  1  0  0  0  0
 22 23  1  0  0  0  0
 25 24  1  0  0  0  0
 25 42  1  0  0  0  0
 25 43  1  0  0  0  0
 25 44  1  0  0  0  0
 26 27  1  0  0  0  0
 27 28  1  0  0  0  0
 27 45  1  0  0  0  0
 27 46  1  0  0  0  0
 28 34  1  0  0  0  0
 28 47  1  6  0  0  0
 29 28  1  0  0  0  0
 29 48  1  0  0  0  0
 29 49  1  0  0  0  0
 30 29  1  0  0  0  0
 30 32  1  0  0  0  0
 31 30  1  0  0  0  0
 31 50  1  0  0  0  0
 31 51  1  0  0  0  0
 31 52  1  0  0  0  0
 32 33  1  0  0  0  0
 32 53  1  0  0  0  0
 32 54  1  0  0  0  0
 33 55  1  0  0  0  0
 33 56  1  0  0  0  0
 34 33  1  0  0  0  0
M  END
>  <REMARK>
 VINA RESULT:      -7.2      2.220      3.486
  6 active torsions:
  status: ('A' for Active; 'I' for Inactive)
    1  A    between atoms: O_2  and  C_3 
    2  A    between atoms: C_4  and  O_5 
    3  A    between atoms: O_5  and  C_6 
    4  A    between atoms: C_6  and  C_7 
    5  A    between atoms: C_21  and  N_22 
    6  A    between atoms: N_22  and  C_24 

>  <TORSDO>
F 6

$$$$
resistance_project/docking/8faf60323ce63d5a/P00533_WT/docked/molecule_0012_out.pdbqt
 OpenBabel09142609553D

 56 59  0  0  1  0  0  0  0  0999 V2000
    0.1910   50.0580  -17.1560 C   0  0  0  0  0  0  0  0  0  0  0  0
    0.8730   51.0110  -16.4090 C   0  0  1  0  0  0  0  0  0  0  0  0
    1.4410   52.1020  -17.0300 C   0  0  0  0  0  0  0  0  0  0  0  0
    1.3190   52.2290  -18.4140 C   0  0  0  0  0  0  0  0  0  0  0  0
    1.8540   53.2730  -19.0720 N   0  0  0  0  0  0  0  0  0  0  0  0
    2.3600   53.9880  -18.5470 H   0  0  0  0  0  0  0  0  0  0  0  0
    1.7370   53.3960  -20.4060 C   0  0  0  0  0  0  0  0  0  0  0  0
    1.0790   52.4760  -21.1310 N   0  0  0  0  0  0  0  0  0  0  0  0
    1.0060   52.5950  -22.1410 H   0  0  0  0  0  0  0  0  0  0  0  0
    0.5180   51.4090  -20.5550 C   0  0  0  0  0  0  0  0  0  0  0  0
    0.6470   51.2950  -19.1780 C   0  0  0  0  0  0  0  0  0  0  0  0
    0.0930   50.2200  -18.5230 C   0  0  0  0  0  0  0  0  0  0  0  0
   -0.1870   50.4000  -21.2270 N   0  0  0  0  0  0  0  0  0  0  0  0
    0.1700   49.4440  -21.2300 H   0  0  0  0  0  0  0  0  0  0  0  0
   -1.3820   50.7030  -21.8940 C   0  0  0  0  0  0  0  0  0  0  0  0
   -2.6340   50.6140  -21.2870 C   0  0  0  0  0  0  0  0  0  0  0  0
   -2.7080   50.2160  -19.9890 F   0  0  0  0  0  0  0  0  0  0  0  0
   -3.7820   50.9320  -22.0190 C   0  0  0  0  0  0  0  0  0  0  0  0
   -3.6910   51.3390  -23.3530 C   0  0  0  0  0  0  0  0  0  0  0  0
   -5.2810   51.7750  -24.3470 Br  0  0  0  0  0  0  0  0  0  0  0  0
   -2.4360   51.4280  -23.9580 C   0  0  0  0  0  0  0  0  0  0  0  0
   -1.2910   51.1100  -23.2280 C   0  0  0  0  0  0  0  0  0  0  0  0
   -0.0560   51.1940  -23.8170 F   0  0  0  0  0  0  0  0  0  0  0  0
   -0.3880   48.9570  -16.5680 O   0  0  0  0  0  0  0  0  0  0  0  0
   -1.5100   48.3710  -17.2010 C   0  0  0  0  0  0  0  0  0  0  0  0
    0.9340   50.7870  -15.0410 O   0  0  0  0  0  0  0  0  0  0  0  0
    0.0390   51.4150  -14.1710 C   0  0  0  0  0  0  0  0  0  0  0  0
   -0.1120   50.6500  -12.8620 C   0  0  1  0  0  0  0  0  0  0  0  0
   -1.2110   51.3320  -12.0750 C   0  0  0  0  0  0  0  0  0  0  0  0
   -2.1980   51.7740  -13.0420 N   0  0  0  0  0  0  0  0  0  0  0  0
   -3.4310   52.1850  -12.4000 C   0  0  0  0  0  0  0  0  0  0  0  0
   -2.3950   50.6990  -13.9820 C   0  0  0  0  0  0  0  0  0  0  0  0
   -1.9320   49.3740  -13.4620 C   0  0  0  0  0  0  0  0  0  0  0  0
   -0.5700   49.3540  -13.1730 O   0  0  0  0  0  0  0  0  0  0  0  0
    1.4390   51.9182  -16.3712 H   0  0  0  0  0  0  0  0  0  0  0  0
    1.9482   52.8133  -16.4806 H   0  0  0  0  0  0  0  0  0  0  0  0
    1.2469   54.3305  -20.5834 H   0  0  0  0  0  0  0  0  0  0  0  0
    2.7465   53.2821  -20.7420 H   0  0  0  0  0  0  0  0  0  0  0  0
   -0.4140   49.5093  -19.0733 H   0  0  0  0  0  0  0  0  0  0  0  0
   -4.7082   50.8654  -21.5687 H   0  0  0  0  0  0  0  0  0  0  0  0
   -2.3558   51.7281  -24.9421 H   0  0  0  0  0  0  0  0  0  0  0  0
   -1.8445   47.5314  -16.6282 H   0  0  0  0  0  0  0  0  0  0  0  0
   -1.2363   48.0464  -18.1832 H   0  0  0  0  0  0  0  0  0  0  0  0
   -2.2975   49.0921  -17.2702 H   0  0  0  0  0  0  0  0  0  0  0  0
   -0.9175   51.4798  -14.6462 H   0  0  0  0  0  0  0  0  0  0  0  0
    0.4237   52.3874  -13.9444 H   0  0  0  0  0  0  0  0  0  0  0  0
    0.8098   50.6181  -12.3196 H   0  0  0  0  0  0  0  0  0  0  0  0
   -1.6525   50.6441  -11.3845 H   0  0  0  0  0  0  0  0  0  0  0  0
   -0.8276   52.1558  -11.5099 H   0  0  0  0  0  0  0  0  0  0  0  0
   -4.1315   52.5031  -13.1437 H   0  0  0  0  0  0  0  0  0  0  0  0
   -3.2312   52.9941  -11.7289 H   0  0  0  0  0  0  0  0  0  0  0  0
   -3.8404   51.3612  -11.8535 H   0  0  0  0  0  0  0  0  0  0  0  0
   -3.4387   50.6307  -14.2078 H   0  0  0  0  0  0  0  0  0  0  0  0
   -1.8118   50.9230  -14.8506 H   0  0  0  0  0  0  0  0  0  0  0  0
   -2.1359   48.6268  -14.2003 H   0  0  0  0  0  0  0  0  0  0  0  0
   -2.4578   49.1843  -12.5496 H   0  0  0  0  0  0  0  0  0  0  0  0
  1 24  1  0  0  0  0
  1  2  1  0  0  0  0
  2 26  1  0  0  0  0
  2 35  1  6  0  0  0
  3  2  1  0  0  0  0
  3 36  1  0  0  0  0
  4  3  2  0  0  0  0
  5  6  1  0  0  0  0
  5  4  1  0  0  0  0
  7  5  1  0  0  0  0
  7 37  1  0  0  0  0
  7 38  1  0  0  0  0
  8 10  1  0  0  0  0
  8  7  1  0  0  0  0
  9  8  1  0  0  0  0
 10 11  2  0  0  0  0
 11 12  1  0  0  0  0
 11  4  1  0  0  0  0
 12  1  2  0  0  0  0
 12 39  1  0  0  0  0
 13 10  1  0  0  0  0
 14 13  1  0  0  0  0
 15 16  1  0  0  0  0
 15 13  1  0  0  0  0
 16 17  1  0  0  0  0
 18 16  2  0  0  0  0
 18 40  1  0  0  0  0
 19 18  1  0  0  0  0
 20 19  1  0  0  0  0
 21 19  2  0  0  0  0
 21 22  1  0  0  0  0
 21 41  1  0  0  0  0
 22 15  2  0  0  0  0
 23 22  1  0  0  0  0
 25 24  1  0  0  0  0
 25 42  1  0  0  0  0
 25 43  1  0  0  0  0
 25 44  1  0  0  0  0
 26 27  1  0  0  0  0
 27 28  1  0  0  0  0
 27 45  1  0  0  0  0
 27 46  1  0  0  0  0
 28 29  1  0  0  0  0
 28 47  1  1  0  0  0
 29 48  1  0  0  0  0
 29 49  1  0  0  0  0
 30 31  1  0  0  0  0
 30 29  1  0  0  0  0
 31 50  1  0  0  0  0
 31 51  1  0  0  0  0
 31 52  1  0  0  0  0
 32 33  1  0  0  0  0
 32 30  1  0  0  0  0
 32 53  1  0  0  0  0
 32 54  1  0  0  0  0
 33 34  1  0  0  0  0
 33 55  1  0  0  0  0
 33 56  1  0  0  0  0
 34 28  1  0  0  0  0
M  END
>  <REMARK>
 VINA RESULT:      -7.1      0.499      1.565
  6 active torsions:
  status: ('A' for Active; 'I' for Inactive)
    1  A    between atoms: O_2  and  C_3 
    2  A    between atoms: C_4  and  O_5 
    3  A    between atoms: O_5  and  C_6 
    4  A    between atoms: C_6  and  C_7 
    5  A    between atoms: C_21  and  N_22 
    6  A    between atoms: N_22  and  C_24 

>  <TORSDO>
F 6

$$$$
resistance_project/docking/8faf60323ce63d5a/P00533_WT/docked/molecule_0012_out.pdbqt
 OpenBabel09142609553D

 56 59  0  0  1  0  0  0  0  0999 V2000
   -0.5640   49.3100  -19.0980 C   0  0  0  0  0  0  0  0  0  0  0  0
   -0.0910   49.8900  -17.9270 C   0  0  2  0  0  0  0  0  0  0  0  0
    0.5110   51.1290  -17.9610 C   0  0  0  0  0  0  0  0  0  0  0  0
    0.6330   51.7850  -19.1870 C   0  0  0  0  0  0  0  0  0  0  0  0
    1.2120   52.9960  -19.2780 N   0  0  0  0  0  0  0  0  0  0  0  0
    1.5680   53.4450  -18.4330 H   0  0  0  0  0  0  0  0  0  0  0  0
    1.3310   53.6290  -20.4590 C   0  0  0  0  0  0  0  0  0  0  0  0
    0.8740   53.0700  -21.5930 N   0  0  0  0  0  0  0  0  0  0  0  0
    0.9790   53.5730  -22.4740 H   0  0  0  0  0  0  0  0  0  0  0  0
    0.2870   51.8700  -21.5890 C   0  0  0  0  0  0  0  0  0  0  0  0
    0.1710   51.2290  -20.3630 C   0  0  0  0  0  0  0  0  0  0  0  0
   -0.4230   49.9910  -20.2900 C   0  0  0  0  0  0  0  0  0  0  0  0
   -0.2190   51.2090  -22.7180 N   0  0  0  0  0  0  0  0  0  0  0  0
   -0.5980   50.2660  -22.6300 H   0  0  0  0  0  0  0  0  0  0  0  0
   -0.2040   51.8450  -23.9680 C   0  0  0  0  0  0  0  0  0  0  0  0
    0.9430   51.9430  -24.7560 C   0  0  0  0  0  0  0  0  0  0  0  0
    2.1020   51.4010  -24.2990 F   0  0  0  0  0  0  0  0  0  0  0  0
    0.8780   52.5930  -25.9920 C   0  0  0  0  0  0  0  0  0  0  0  0
   -0.3220   53.1460  -26.4490 C   0  0  0  0  0  0  0  0  0  0  0  0
   -0.3940   54.0370  -28.1540 Br  0  0  0  0  0  0  0  0  0  0  0  0
   -1.4670   53.0450  -25.6580 C   0  0  0  0  0  0  0  0  0  0  0  0
   -1.4040   52.3970  -24.4250 C   0  0  0  0  0  0  0  0  0  0  0  0
   -2.5250   52.2960  -23.6440 F   0  0  0  0  0  0  0  0  0  0  0  0
   -1.1700   48.0740  -19.1000 O   0  0  0  0  0  0  0  0  0  0  0  0
   -1.9380   47.7060  -20.2290 C   0  0  0  0  0  0  0  0  0  0  0  0
   -0.2650   49.1520  -16.7650 O   0  0  0  0  0  0  0  0  0  0  0  0
    0.5730   49.3420  -15.6630 C   0  0  0  0  0  0  0  0  0  0  0  0
   -0.2090   49.7370  -14.4160 C   0  0  1  0  0  0  0  0  0  0  0  0
    0.7450   49.6330  -13.2440 C   0  0  0  0  0  0  0  0  0  0  0  0
    2.0440   50.0580  -13.7310 N   0  0  0  0  0  0  0  0  0  0  0  0
    2.9770   50.2770  -12.6440 C   0  0  0  0  0  0  0  0  0  0  0  0
    1.8420   51.2370  -14.5340 C   0  0  0  0  0  0  0  0  0  0  0  0
    0.5330   51.9110  -14.2660 C   0  0  0  0  0  0  0  0  0  0  0  0
   -0.5610   51.0960  -14.5430 O   0  0  0  0  0  0  0  0  0  0  0  0
    0.3841   50.7138  -17.4365 H   0  0  0  0  0  0  0  0  0  0  0  0
    0.8655   51.5644  -17.0951 H   0  0  0  0  0  0  0  0  0  0  0  0
    0.8231   54.5650  -20.3550 H   0  0  0  0  0  0  0  0  0  0  0  0
    2.3897   53.6426  -20.6132 H   0  0  0  0  0  0  0  0  0  0  0  0
   -0.7757   49.5560  -21.1568 H   0  0  0  0  0  0  0  0  0  0  0  0
    1.7267   52.6656  -26.5746 H   0  0  0  0  0  0  0  0  0  0  0  0
   -2.3586   53.4490  -25.9849 H   0  0  0  0  0  0  0  0  0  0  0  0
   -2.3412   46.7258  -20.0820 H   0  0  0  0  0  0  0  0  0  0  0  0
   -1.3161   47.7090  -21.0997 H   0  0  0  0  0  0  0  0  0  0  0  0
   -2.7377   48.4048  -20.3595 H   0  0  0  0  0  0  0  0  0  0  0  0
    1.2745   50.1170  -15.8914 H   0  0  0  0  0  0  0  0  0  0  0  0
    1.0720   48.4170  -15.4624 H   0  0  0  0  0  0  0  0  0  0  0  0
   -1.0740   49.1208  -14.2856 H   0  0  0  0  0  0  0  0  0  0  0  0
    0.7934   48.6225  -12.8954 H   0  0  0  0  0  0  0  0  0  0  0  0
    0.4205   50.2415  -12.4259 H   0  0  0  0  0  0  0  0  0  0  0  0
    3.9206   50.5883  -13.0411 H   0  0  0  0  0  0  0  0  0  0  0  0
    3.1039   49.3678  -12.0942 H   0  0  0  0  0  0  0  0  0  0  0  0
    2.5955   51.0365  -11.9941 H   0  0  0  0  0  0  0  0  0  0  0  0
    2.6307   51.9297  -14.3267 H   0  0  0  0  0  0  0  0  0  0  0  0
    1.8391   50.9291  -15.5588 H   0  0  0  0  0  0  0  0  0  0  0  0
    0.4978   52.1910  -13.2339 H   0  0  0  0  0  0  0  0  0  0  0  0
    0.4715   52.7624  -14.9111 H   0  0  0  0  0  0  0  0  0  0  0  0
  1  2  1  0  0  0  0
  2 26  1  0  0  0  0
  2 35  1  1  0  0  0
  3  2  1  0  0  0  0
  3 36  1  0  0  0  0
  4  3  2  0  0  0  0
  5  4  1  0  0  0  0
  5  6  1  0  0  0  0
  7  5  1  0  0  0  0
  7 37  1  0  0  0  0
  7 38  1  0  0  0  0
  8 10  1  0  0  0  0
  8  7  1  0  0  0  0
  9  8  1  0  0  0  0
 10 11  2  0  0  0  0
 11 12  1  0  0  0  0
 11  4  1  0  0  0  0
 12  1  2  0  0  0  0
 12 39  1  0  0  0  0
 13 14  1  0  0  0  0
 13 10  1  0  0  0  0
 15 13  1  0  0  0  0
 16 17  1  0  0  0  0
 16 15  2  0  0  0  0
 18 16  1  0  0  0  0
 18 40  1  0  0  0  0
 19 18  2  0  0  0  0
 19 21  1  0  0  0  0
 20 19  1  0  0  0  0
 21 22  2  0  0  0  0
 21 41  1  0  0  0  0
 22 15  1  0  0  0  0
 22 23  1  0  0  0  0
 24  1  1  0  0  0  0
 25 24  1  0  0  0  0
 25 42  1  0  0  0  0
 25 43  1  0  0  0  0
 25 44  1  0  0  0  0
 26 27  1  0  0  0  0
 27 28  1  0  0  0  0
 27 45  1  0  0  0  0
 27 46  1  0  0  0  0
 28 29  1  0  0  0  0
 28 47  1  1  0  0  0
 29 48  1  0  0  0  0
 29 49  1  0  0  0  0
 30 29  1  0  0  0  0
 30 31  1  0  0  0  0
 31 50  1  0  0  0  0
 31 51  1  0  0  0  0
 31 52  1  0  0  0  0
 32 33  1  0  0  0  0
 32 30  1  0  0  0  0
 32 53  1  0  0  0  0
 32 54  1  0  0  0  0
 33 55  1  0  0  0  0
 33 56  1  0  0  0  0
 34 28  1  0  0  0  0
 34 33  1  0  0  0  0
M  END
>  <REMARK>
 VINA RESULT:      -7.0      2.626      3.452
  6 active torsions:
  status: ('A' for Active; 'I' for Inactive)
    1  A    between atoms: O_2  and  C_3 
    2  A    between atoms: C_4  and  O_5 
    3  A    between atoms: O_5  and  C_6 
    4  A    between atoms: C_6  and  C_7 
    5  A    between atoms: C_21  and  N_22 
    6  A    between atoms: N_22  and  C_24 

>  <TORSDO>
F 6

$$$$
resistance_project/docking/8faf60323ce63d5a/P00533_WT/docked/molecule_0012_out.pdbqt
 OpenBabel09142609553D

 56 59  0  0  1  0  0  0  0  0999 V2000
    0.5310   52.5960  -20.8790 C   0  0  0  0  0  0  0  0  0  0  0  0
    0.0760   51.5380  -21.6560 C   0  0  2  0  0  0  0  0  0  0  0  0
   -0.2650   50.3400  -21.0650 C   0  0  0  0  0  0  0  0  0  0  0  0
   -0.1460   50.2150  -19.6790 C   0  0  0  0  0  0  0  0  0  0  0  0
   -0.4640   49.0700  -19.0500 N   0  0  0  0  0  0  0  0  0  0  0  0
   -0.8010   48.2760  -19.5970 H   0  0  0  0  0  0  0  0  0  0  0  0
   -0.3490   48.9480  -17.7150 C   0  0  0  0  0  0  0  0  0  0  0  0
    0.0900   49.9700  -16.9620 N   0  0  0  0  0  0  0  0  0  0  0  0
    0.1680   49.8490  -15.9520 H   0  0  0  0  0  0  0  0  0  0  0  0
    0.4270   51.1420  -17.5090 C   0  0  0  0  0  0  0  0  0  0  0  0
    0.3040   51.2530  -18.8870 C   0  0  0  0  0  0  0  0  0  0  0  0
    0.6350   52.4320  -19.5130 C   0  0  0  0  0  0  0  0  0  0  0  0
    0.8950   52.2620  -16.8070 N   0  0  0  0  0  0  0  0  0  0  0  0
    0.4120   53.1570  -16.8940 H   0  0  0  0  0  0  0  0  0  0  0  0
    2.0250   52.1530  -15.9830 C   0  0  0  0  0  0  0  0  0  0  0  0
    1.9880   51.5700  -14.7160 C   0  0  0  0  0  0  0  0  0  0  0  0
    0.8060   51.0830  -14.2520 F   0  0  0  0  0  0  0  0  0  0  0  0
    3.1560   51.4990  -13.9540 C   0  0  0  0  0  0  0  0  0  0  0  0
    4.3640   52.0040  -14.4450 C   0  0  0  0  0  0  0  0  0  0  0  0
    5.9660   51.8980  -13.3820 Br  0  0  0  0  0  0  0  0  0  0  0  0
    4.3980   52.5860  -15.7130 C   0  0  0  0  0  0  0  0  0  0  0  0
    3.2320   52.6580  -16.4740 C   0  0  0  0  0  0  0  0  0  0  0  0
    3.2580   53.2290  -17.7190 F   0  0  0  0  0  0  0  0  0  0  0  0
    0.8800   53.8050  -21.4370 O   0  0  0  0  0  0  0  0  0  0  0  0
    2.2500   54.1560  -21.4740 C   0  0  0  0  0  0  0  0  0  0  0  0
   -0.0040   51.7700  -23.0210 O   0  0  0  0  0  0  0  0  0  0  0  0
   -1.0290   51.2070  -23.7850 C   0  0  0  0  0  0  0  0  0  0  0  0
   -2.1320   52.2130  -24.0880 C   0  0  1  0  0  0  0  0  0  0  0  0
   -2.6010   51.9450  -25.5030 C   0  0  0  0  0  0  0  0  0  0  0  0
   -2.5420   50.5080  -25.6910 N   0  0  0  0  0  0  0  0  0  0  0  0
   -3.2320   50.0970  -26.8980 C   0  0  0  0  0  0  0  0  0  0  0  0
   -3.0860   49.8930  -24.5070 C   0  0  0  0  0  0  0  0  0  0  0  0
   -3.9280   50.8270  -23.6950 C   0  0  0  0  0  0  0  0  0  0  0  0
   -3.2170   51.9310  -23.2330 O   0  0  0  0  0  0  0  0  0  0  0  0
   -0.2995   50.5380  -21.7183 H   0  0  0  0  0  0  0  0  0  0  0  0
   -0.6022   49.5496  -21.6366 H   0  0  0  0  0  0  0  0  0  0  0  0
    0.3209   48.1321  -17.5407 H   0  0  0  0  0  0  0  0  0  0  0  0
   -1.3662   48.8436  -17.3999 H   0  0  0  0  0  0  0  0  0  0  0  0
    0.9730   53.2217  -18.9410 H   0  0  0  0  0  0  0  0  0  0  0  0
    3.1273   51.0684  -13.0166 H   0  0  0  0  0  0  0  0  0  0  0  0
    5.2836   52.9620  -16.0863 H   0  0  0  0  0  0  0  0  0  0  0  0
    2.3599   55.1160  -21.9336 H   0  0  0  0  0  0  0  0  0  0  0  0
    2.7901   53.4258  -22.0397 H   0  0  0  0  0  0  0  0  0  0  0  0
    2.6361   54.1916  -20.4767 H   0  0  0  0  0  0  0  0  0  0  0  0
   -0.6186   50.8555  -24.7085 H   0  0  0  0  0  0  0  0  0  0  0  0
   -1.4584   50.4045  -23.2225 H   0  0  0  0  0  0  0  0  0  0  0  0
   -1.7878   53.2184  -23.9631 H   0  0  0  0  0  0  0  0  0  0  0  0
   -3.6042   52.2939  -25.6323 H   0  0  0  0  0  0  0  0  0  0  0  0
   -1.9879   52.4542  -26.2169 H   0  0  0  0  0  0  0  0  0  0  0  0
   -2.7900   50.5809  -27.7438 H   0  0  0  0  0  0  0  0  0  0  0  0
   -4.2641   50.3707  -26.8296 H   0  0  0  0  0  0  0  0  0  0  0  0
   -3.1511   49.0361  -27.0114 H   0  0  0  0  0  0  0  0  0  0  0  0
   -2.2757   49.5489  -23.8989 H   0  0  0  0  0  0  0  0  0  0  0  0
   -3.7167   49.0895  -24.8255 H   0  0  0  0  0  0  0  0  0  0  0  0
   -4.3156   50.2931  -22.8526 H   0  0  0  0  0  0  0  0  0  0  0  0
   -4.7098   51.1897  -24.3291 H   0  0  0  0  0  0  0  0  0  0  0  0
  1 12  2  0  0  0  0
  2  3  1  0  0  0  0
  2  1  1  0  0  0  0
  2 35  1  1  0  0  0
  3  4  2  0  0  0  0
  3 36  1  0  0  0  0
  4  5  1  0  0  0  0
  4 11  1  0  0  0  0
  5  7  1  0  0  0  0
  6  5  1  0  0  0  0
  7  8  1  0  0  0  0
  7 37  1  0  0  0  0
  7 38  1  0  0  0  0
  8  9  1  0  0  0  0
 10  8  1  0  0  0  0
 10 13  1  0  0  0  0
 11 10  2  0  0  0  0
 12 11  1  0  0  0  0
 12 39  1  0  0  0  0
 13 15  1  0  0  0  0
 14 13  1  0  0  0  0
 15 16  1  0  0  0  0
 16 17  1  0  0  0  0
 16 18  2  0  0  0  0
 18 40  1  0  0  0  0
 19 18  1  0  0  0  0
 19 20  1  0  0  0  0
 21 19  2  0  0  0  0
 21 41  1  0  0  0  0
 22 15  2  0  0  0  0
 22 21  1  0  0  0  0
 23 22  1  0  0  0  0
 24  1  1  0  0  0  0
 25 24  1  0  0  0  0
 25 42  1  0  0  0  0
 25 43  1  0  0  0  0
 25 44  1  0  0  0  0
 26  2  1  0  0  0  0
 27 26  1  0  0  0  0
 27 45  1  0  0  0  0
 27 46  1  0  0  0  0
 28 27  1  0  0  0  0
 28 34  1  0  0  0  0
 28 47  1  1  0  0  0
 29 28  1  0  0  0  0
 29 48  1  0  0  0  0
 29 49  1  0  0  0  0
 30 29  1  0  0  0  0
 30 32  1  0  0  0  0
 31 30  1  0  0  0  0
 31 50  1  0  0  0  0
 31 51  1  0  0  0  0
 31 52  1  0  0  0  0
 32 33  1  0  0  0  0
 32 53  1  0  0  0  0
 32 54  1  0  0  0  0
 33 34  1  0  0  0  0
 33 55  1  0  0  0  0
 33 56  1  0  0  0  0
M  END
>  <REMARK>
 VINA RESULT:      -7.0      4.913      8.895
  6 active torsions:
  status: ('A' for Active; 'I' for Inactive)
    1  A    between atoms: O_2  and  C_3 
    2  A    between atoms: C_4  and  O_5 
    3  A    between atoms: O_5  and  C_6 
    4  A    between atoms: C_6  and  C_7 
    5  A    between atoms: C_21  and  N_22 
    6  A    between atoms: N_22  and  C_24 

>  <TORSDO>
F 6

$$$$
resistance_project/docking/8faf60323ce63d5a/P00533_WT/docked/molecule_0012_out.pdbqt
 OpenBabel09142609553D

 56 59  0  0  1  0  0  0  0  0999 V2000
   -0.3570   49.3830  -19.0160 C   0  0  0  0  0  0  0  0  0  0  0  0
    0.1190   49.9880  -17.8590 C   0  0  1  0  0  0  0  0  0  0  0  0
    0.7380   51.2180  -17.9240 C   0  0  0  0  0  0  0  0  0  0  0  0
    0.8750   51.8380  -19.1670 C   0  0  0  0  0  0  0  0  0  0  0  0
    1.4710   53.0370  -19.2890 N   0  0  0  0  0  0  0  0  0  0  0  0
    1.8300   53.5040  -18.4540 H   0  0  0  0  0  0  0  0  0  0  0  0
    1.6050   53.6360  -20.4860 C   0  0  0  0  0  0  0  0  0  0  0  0
    1.1460   53.0530  -21.6060 N   0  0  0  0  0  0  0  0  0  0  0  0
    1.2610   53.5290  -22.5000 H   0  0  0  0  0  0  0  0  0  0  0  0
    0.5410   51.8620  -21.5720 C   0  0  0  0  0  0  0  0  0  0  0  0
    0.4110   51.2560  -20.3300 C   0  0  0  0  0  0  0  0  0  0  0  0
   -0.2010   50.0290  -20.2250 C   0  0  0  0  0  0  0  0  0  0  0  0
    0.0320   51.1770  -22.6850 N   0  0  0  0  0  0  0  0  0  0  0  0
   -0.2210   50.1920  -22.6060 H   0  0  0  0  0  0  0  0  0  0  0  0
   -0.1330   51.8470  -23.9060 C   0  0  0  0  0  0  0  0  0  0  0  0
   -1.3480   52.3980  -24.3120 C   0  0  0  0  0  0  0  0  0  0  0  0
   -2.4260   52.2860  -23.4930 F   0  0  0  0  0  0  0  0  0  0  0  0
   -1.4330   53.0500  -25.5450 C   0  0  0  0  0  0  0  0  0  0  0  0
   -0.3150   53.1570  -26.3780 C   0  0  0  0  0  0  0  0  0  0  0  0
   -0.4490   54.0600  -28.0730 Br  0  0  0  0  0  0  0  0  0  0  0  0
    0.8990   52.6050  -25.9690 C   0  0  0  0  0  0  0  0  0  0  0  0
    0.9850   51.9540  -24.7380 C   0  0  0  0  0  0  0  0  0  0  0  0
    2.1740   51.4090  -24.3310 F   0  0  0  0  0  0  0  0  0  0  0  0
   -0.9800   48.1560  -18.9870 O   0  0  0  0  0  0  0  0  0  0  0  0
   -1.8140   47.8020  -20.0730 C   0  0  0  0  0  0  0  0  0  0  0  0
   -0.0710   49.2850  -16.6780 O   0  0  0  0  0  0  0  0  0  0  0  0
   -1.0080   49.7100  -15.7330 C   0  0  0  0  0  0  0  0  0  0  0  0
   -0.8030   49.0320  -14.3840 C   0  0  1  0  0  0  0  0  0  0  0  0
    0.0380   49.9680  -13.5410 C   0  0  0  0  0  0  0  0  0  0  0  0
   -0.3800   51.3160  -13.8790 N   0  0  0  0  0  0  0  0  0  0  0  0
    0.1410   52.2890  -12.9410 C   0  0  0  0  0  0  0  0  0  0  0  0
   -1.8210   51.3200  -13.9380 C   0  0  0  0  0  0  0  0  0  0  0  0
   -2.4400   50.1600  -13.2230 C   0  0  0  0  0  0  0  0  0  0  0  0
   -2.0620   48.9320  -13.7590 O   0  0  0  0  0  0  0  0  0  0  0  0
    0.6205   50.8081  -17.3890 H   0  0  0  0  0  0  0  0  0  0  0  0
    1.0939   51.6725  -17.0685 H   0  0  0  0  0  0  0  0  0  0  0  0
    1.1100   54.5816  -20.4103 H   0  0  0  0  0  0  0  0  0  0  0  0
    2.6646   53.6307  -20.6348 H   0  0  0  0  0  0  0  0  0  0  0  0
   -0.5563   49.5752  -21.0811 H   0  0  0  0  0  0  0  0  0  0  0  0
   -2.3324   53.4578  -25.8447 H   0  0  0  0  0  0  0  0  0  0  0  0
    1.7310   52.6779  -26.5751 H   0  0  0  0  0  0  0  0  0  0  0  0
   -2.2227   46.8274  -19.9059 H   0  0  0  0  0  0  0  0  0  0  0  0
   -1.2408   47.7983  -20.9765 H   0  0  0  0  0  0  0  0  0  0  0  0
   -2.6095   48.5125  -20.1582 H   0  0  0  0  0  0  0  0  0  0  0  0
   -1.9895   49.4785  -16.0908 H   0  0  0  0  0  0  0  0  0  0  0  0
   -0.8857   50.7641  -15.5960 H   0  0  0  0  0  0  0  0  0  0  0  0
   -0.3452   48.0713  -14.4951 H   0  0  0  0  0  0  0  0  0  0  0  0
    1.0758   49.8357  -13.7655 H   0  0  0  0  0  0  0  0  0  0  0  0
   -0.0942   49.7725  -12.4974 H   0  0  0  0  0  0  0  0  0  0  0  0
   -0.1877   53.2675  -13.2227 H   0  0  0  0  0  0  0  0  0  0  0  0
    1.2104   52.2557  -12.9497 H   0  0  0  0  0  0  0  0  0  0  0  0
   -0.2149   52.0625  -11.9577 H   0  0  0  0  0  0  0  0  0  0  0  0
   -2.1201   51.2863  -14.9648 H   0  0  0  0  0  0  0  0  0  0  0  0
   -2.1582   52.2117  -13.4521 H   0  0  0  0  0  0  0  0  0  0  0  0
   -3.5045   50.2477  -13.2866 H   0  0  0  0  0  0  0  0  0  0  0  0
   -2.0994   50.1875  -12.2090 H   0  0  0  0  0  0  0  0  0  0  0  0
  1 24  1  0  0  0  0
  1  2  1  0  0  0  0
  2 26  1  0  0  0  0
  2 35  1  6  0  0  0
  3  2  1  0  0  0  0
  3 36  1  0  0  0  0
  4  3  2  0  0  0  0
  5  4  1  0  0  0  0
  5  6  1  0  0  0  0
  7  5  1  0  0  0  0
  7 37  1  0  0  0  0
  7 38  1  0  0  0  0
  8 10  1  0  0  0  0
  8  7  1  0  0  0  0
  9  8  1  0  0  0  0
 10 11  2  0  0  0  0
 11 12  1  0  0  0  0
 11  4  1  0  0  0  0
 12  1  2  0  0  0  0
 12 39  1  0  0  0  0
 13 14  1  0  0  0  0
 13 10  1  0  0  0  0
 15 13  1  0  0  0  0
 16 15  1  0  0  0  0
 16 17  1  0  0  0  0
 18 16  2  0  0  0  0
 18 40  1  0  0  0  0
 19 21  2  0  0  0  0
 19 18  1  0  0  0  0
 20 19  1  0  0  0  0
 21 22  1  0  0  0  0
 21 41  1  0  0  0  0
 22 23  1  0  0  0  0
 22 15  2  0  0  0  0
 25 24  1  0  0  0  0
 25 42  1  0  0  0  0
 25 43  1  0  0  0  0
 25 44  1  0  0  0  0
 26 27  1  0  0  0  0
 27 28  1  0  0  0  0
 27 45  1  0  0  0  0
 27 46  1  0  0  0  0
 28 34  1  0  0  0  0
 28 29  1  0  0  0  0
 28 47  1  6  0  0  0
 29 48  1  0  0  0  0
 29 49  1  0  0  0  0
 30 29  1  0  0  0  0
 30 31  1  0  0  0  0
 31 50  1  0  0  0  0
 31 51  1  0  0  0  0
 31 52  1  0  0  0  0
 32 30  1  0  0  0  0
 32 33  1  0  0  0  0
 32 53  1  0  0  0  0
 32 54  1  0  0  0  0
 33 55  1  0  0  0  0
 33 56  1  0  0  0  0
 34 33  1  0  0  0  0
M  END
>  <REMARK>
 VINA RESULT:      -6.9      2.218      3.113
  6 active torsions:
  status: ('A' for Active; 'I' for Inactive)
    1  A    between atoms: O_2  and  C_3 
    2  A    between atoms: C_4  and  O_5 
    3  A    between atoms: O_5  and  C_6 
    4  A    between atoms: C_6  and  C_7 
    5  A    between atoms: C_21  and  N_22 
    6  A    between atoms: N_22  and  C_24 

>  <TORSDO>
F 6

$$$$
resistance_project/docking/8faf60323ce63d5a/P00533_WT/docked/molecule_0012_out.pdbqt
 OpenBabel09142609553D

 56 59  0  0  1  0  0  0  0  0999 V2000
    0.1500   50.2280  -15.2430 C   0  0  0  0  0  0  0  0  0  0  0  0
   -1.0190   50.2450  -14.4910 C   0  0  1  0  0  0  0  0  0  0  0  0
   -2.2450   50.2950  -15.1170 C   0  0  0  0  0  0  0  0  0  0  0  0
   -2.2890   50.3280  -16.5120 C   0  0  0  0  0  0  0  0  0  0  0  0
   -3.4580   50.3770  -17.1740 N   0  0  0  0  0  0  0  0  0  0  0  0
   -4.3320   50.3910  -16.6460 H   0  0  0  0  0  0  0  0  0  0  0  0
   -3.5020   50.4090  -18.5180 C   0  0  0  0  0  0  0  0  0  0  0  0
   -2.3740   50.3920  -19.2480 N   0  0  0  0  0  0  0  0  0  0  0  0
   -2.4370   50.4170  -20.2660 H   0  0  0  0  0  0  0  0  0  0  0  0
   -1.1710   50.3430  -18.6670 C   0  0  0  0  0  0  0  0  0  0  0  0
   -1.1420   50.3110  -17.2800 C   0  0  0  0  0  0  0  0  0  0  0  0
    0.0630   50.2610  -16.6200 C   0  0  0  0  0  0  0  0  0  0  0  0
    0.0570   50.3230  -19.3430 N   0  0  0  0  0  0  0  0  0  0  0  0
    0.7300   49.5790  -19.1580 H   0  0  0  0  0  0  0  0  0  0  0  0
    0.3620   51.3250  -20.2760 C   0  0  0  0  0  0  0  0  0  0  0  0
    1.0840   52.4720  -19.9490 C   0  0  0  0  0  0  0  0  0  0  0  0
    1.5160   52.6330  -18.6700 F   0  0  0  0  0  0  0  0  0  0  0  0
    1.3470   53.4280  -20.9340 C   0  0  0  0  0  0  0  0  0  0  0  0
    0.8960   53.2490  -22.2450 C   0  0  0  0  0  0  0  0  0  0  0  0
    1.2680   54.5740  -23.5900 Br  0  0  0  0  0  0  0  0  0  0  0  0
    0.1730   52.1000  -22.5690 C   0  0  0  0  0  0  0  0  0  0  0  0
   -0.0900   51.1460  -21.5860 C   0  0  0  0  0  0  0  0  0  0  0  0
   -0.7990   50.0160  -21.8990 F   0  0  0  0  0  0  0  0  0  0  0  0
    1.3910   50.1780  -14.6500 O   0  0  0  0  0  0  0  0  0  0  0  0
    2.0880   51.3920  -14.4520 C   0  0  0  0  0  0  0  0  0  0  0  0
   -0.8610   50.2090  -13.1130 O   0  0  0  0  0  0  0  0  0  0  0  0
   -1.3060   51.2640  -12.3130 C   0  0  0  0  0  0  0  0  0  0  0  0
   -1.8500   50.7740  -10.9770 C   0  0  1  0  0  0  0  0  0  0  0  0
   -2.4810   51.9680  -10.2910 C   0  0  0  0  0  0  0  0  0  0  0  0
   -3.0930   52.7680  -11.3350 N   0  0  0  0  0  0  0  0  0  0  0  0
   -3.9710   53.7820  -10.7870 C   0  0  0  0  0  0  0  0  0  0  0  0
   -3.7770   51.8670  -12.2280 C   0  0  0  0  0  0  0  0  0  0  0  0
   -4.0490   50.5290  -11.6140 C   0  0  0  0  0  0  0  0  0  0  0  0
   -2.8860   49.8570  -11.2460 O   0  0  0  0  0  0  0  0  0  0  0  0
   -2.0879   50.2760  -14.4536 H   0  0  0  0  0  0  0  0  0  0  0  0
   -3.1163   50.3078  -14.5641 H   0  0  0  0  0  0  0  0  0  0  0  0
   -4.0752   49.5588  -18.8239 H   0  0  0  0  0  0  0  0  0  0  0  0
   -3.8966   51.3834  -18.7173 H   0  0  0  0  0  0  0  0  0  0  0  0
    0.9336   50.2477  -17.1740 H   0  0  0  0  0  0  0  0  0  0  0  0
    1.8809   54.2769  -20.6904 H   0  0  0  0  0  0  0  0  0  0  0  0
   -0.1661   51.9566  -23.5331 H   0  0  0  0  0  0  0  0  0  0  0  0
    3.0292   51.1907  -13.9845 H   0  0  0  0  0  0  0  0  0  0  0  0
    1.5091   52.0375  -13.8250 H   0  0  0  0  0  0  0  0  0  0  0  0
    2.2532   51.8666  -15.3967 H   0  0  0  0  0  0  0  0  0  0  0  0
   -2.0819   51.7876  -12.8313 H   0  0  0  0  0  0  0  0  0  0  0  0
   -0.4724   51.9053  -12.1163 H   0  0  0  0  0  0  0  0  0  0  0  0
   -1.0804   50.3291  -10.3814 H   0  0  0  0  0  0  0  0  0  0  0  0
   -3.2228   51.6430   -9.5918 H   0  0  0  0  0  0  0  0  0  0  0  0
   -1.7514   52.5326   -9.7489 H   0  0  0  0  0  0  0  0  0  0  0  0
   -4.4021   54.3496  -11.5850 H   0  0  0  0  0  0  0  0  0  0  0  0
   -3.4101   54.4326  -10.1490 H   0  0  0  0  0  0  0  0  0  0  0  0
   -4.7492   53.3126  -10.2222 H   0  0  0  0  0  0  0  0  0  0  0  0
   -4.7099   52.3089  -12.5095 H   0  0  0  0  0  0  0  0  0  0  0  0
   -3.1393   51.7079  -13.0724 H   0  0  0  0  0  0  0  0  0  0  0  0
   -4.5804   49.9293  -12.3231 H   0  0  0  0  0  0  0  0  0  0  0  0
   -4.6210   50.6932  -10.7247 H   0  0  0  0  0  0  0  0  0  0  0  0
  1 24  1  0  0  0  0
  1  2  1  0  0  0  0
  2 26  1  0  0  0  0
  2 35  1  1  0  0  0
  3  2  1  0  0  0  0
  3 36  1  0  0  0  0
  4  3  2  0  0  0  0
  5  6  1  0  0  0  0
  5  4  1  0  0  0  0
  7  5  1  0  0  0  0
  7 37  1  0  0  0  0
  7 38  1  0  0  0  0
  8 10  1  0  0  0  0
  8  7  1  0  0  0  0
  9  8  1  0  0  0  0
 10 11  2  0  0  0  0
 11 12  1  0  0  0  0
 11  4  1  0  0  0  0
 12  1  2  0  0  0  0
 12 39  1  0  0  0  0
 13 14  1  0  0  0  0
 13 10  1  0  0  0  0
 15 16  1  0  0  0  0
 15 13  1  0  0  0  0
 16 17  1  0  0  0  0
 18 16  2  0  0  0  0
 18 40  1  0  0  0  0
 19 18  1  0  0  0  0
 20 19  1  0  0  0  0
 21 19  2  0  0  0  0
 21 22  1  0  0  0  0
 21 41  1  0  0  0  0
 22 15  2  0  0  0  0
 23 22  1  0  0  0  0
 24 25  1  0  0  0  0
 25 42  1  0  0  0  0
 25 43  1  0  0  0  0
 25 44  1  0  0  0  0
 26 27  1  0  0  0  0
 27 28  1  0  0  0  0
 27 45  1  0  0  0  0
 27 46  1  0  0  0  0
 28 29  1  0  0  0  0
 28 47  1  1  0  0  0
 29 48  1  0  0  0  0
 29 49  1  0  0  0  0
 30 31  1  0  0  0  0
 30 29  1  0  0  0  0
 31 50  1  0  0  0  0
 31 51  1  0  0  0  0
 31 52  1  0  0  0  0
 32 33  1  0  0  0  0
 32 30  1  0  0  0  0
 32 53  1  0  0  0  0
 32 54  1  0  0  0  0
 33 34  1  0  0  0  0
 33 55  1  0  0  0  0
 33 56  1  0  0  0  0
 34 28  1  0  0  0  0
M  END
>  <REMARK>
 VINA RESULT:      -6.7      2.381      3.639
  6 active torsions:
  status: ('A' for Active; 'I' for Inactive)
    1  A    between atoms: O_2  and  C_3 
    2  A    between atoms: C_4  and  O_5 
    3  A    between atoms: O_5  and  C_6 
    4  A    between atoms: C_6  and  C_7 
    5  A    between atoms: C_21  and  N_22 
    6  A    between atoms: N_22  and  C_24 

>  <TORSDO>
F 6

$$$$
resistance_project/docking/8faf60323ce63d5a/P00533_WT/docked/molecule_0012_out.pdbqt
 OpenBabel09142609553D

 56 59  0  0  1  0  0  0  0  0999 V2000
   -1.2700   49.1930  -21.1980 C   0  0  0  0  0  0  0  0  0  0  0  0
   -1.5720   50.0190  -22.2740 C   0  0  1  0  0  0  0  0  0  0  0  0
   -1.1670   51.3360  -22.2720 C   0  0  0  0  0  0  0  0  0  0  0  0
   -0.4530   51.8200  -21.1740 C   0  0  0  0  0  0  0  0  0  0  0  0
   -0.0330   53.0960  -21.1200 N   0  0  0  0  0  0  0  0  0  0  0  0
   -0.2410   53.7250  -21.8970 H   0  0  0  0  0  0  0  0  0  0  0  0
    0.6550   53.5640  -20.0620 C   0  0  0  0  0  0  0  0  0  0  0  0
    0.9470   52.7680  -19.0200 N   0  0  0  0  0  0  0  0  0  0  0  0
    1.4700   53.1490  -18.2320 H   0  0  0  0  0  0  0  0  0  0  0  0
    0.5680   51.4870  -18.9960 C   0  0  0  0  0  0  0  0  0  0  0  0
   -0.1420   51.0180  -20.0930 C   0  0  0  0  0  0  0  0  0  0  0  0
   -0.5620   49.7100  -20.1320 C   0  0  0  0  0  0  0  0  0  0  0  0
    0.8260   50.5830  -17.9560 N   0  0  0  0  0  0  0  0  0  0  0  0
    1.2990   49.7000  -18.1520 H   0  0  0  0  0  0  0  0  0  0  0  0
    0.4340   50.8910  -16.6450 C   0  0  0  0  0  0  0  0  0  0  0  0
    1.2280   51.6340  -15.7700 C   0  0  0  0  0  0  0  0  0  0  0  0
    2.4360   52.0830  -16.2010 F   0  0  0  0  0  0  0  0  0  0  0  0
    0.7690   51.8990  -14.4780 C   0  0  0  0  0  0  0  0  0  0  0  0
   -0.4760   51.4300  -14.0480 C   0  0  0  0  0  0  0  0  0  0  0  0
   -1.0930   51.8050  -12.2640 Br  0  0  0  0  0  0  0  0  0  0  0  0
   -1.2670   50.6870  -14.9250 C   0  0  0  0  0  0  0  0  0  0  0  0
   -0.8100   50.4210  -16.2160 C   0  0  0  0  0  0  0  0  0  0  0  0
   -1.5820   49.6920  -17.0810 F   0  0  0  0  0  0  0  0  0  0  0  0
   -1.6590   47.8730  -21.1670 O   0  0  0  0  0  0  0  0  0  0  0  0
   -2.3070   47.3920  -20.0050 C   0  0  0  0  0  0  0  0  0  0  0  0
   -2.2840   49.4360  -23.3110 O   0  0  0  0  0  0  0  0  0  0  0  0
   -3.6650   49.6160  -23.4230 C   0  0  0  0  0  0  0  0  0  0  0  0
   -4.4120   48.2880  -23.4360 C   0  0  1  0  0  0  0  0  0  0  0  0
   -5.2560   48.2420  -22.1780 C   0  0  0  0  0  0  0  0  0  0  0  0
   -5.7200   49.5970  -21.9420 N   0  0  0  0  0  0  0  0  0  0  0  0
   -6.7640   49.6380  -20.9390 C   0  0  0  0  0  0  0  0  0  0  0  0
   -6.1470   50.1350  -23.2090 C   0  0  0  0  0  0  0  0  0  0  0  0
   -6.4240   49.0770  -24.2320 C   0  0  0  0  0  0  0  0  0  0  0  0
   -5.3020   48.3080  -24.5290 O   0  0  0  0  0  0  0  0  0  0  0  0
   -1.5343   50.9867  -22.7289 H   0  0  0  0  0  0  0  0  0  0  0  0
   -1.3876   51.9541  -23.0684 H   0  0  0  0  0  0  0  0  0  0  0  0
    0.0898   54.3835  -19.6698 H   0  0  0  0  0  0  0  0  0  0  0  0
    1.6187   53.7684  -20.4795 H   0  0  0  0  0  0  0  0  0  0  0  0
   -0.3400   49.0922  -19.3357 H   0  0  0  0  0  0  0  0  0  0  0  0
    1.3568   52.4485  -13.8318 H   0  0  0  0  0  0  0  0  0  0  0  0
   -2.1878   50.3351  -14.6194 H   0  0  0  0  0  0  0  0  0  0  0  0
   -2.5454   46.3567  -20.1323 H   0  0  0  0  0  0  0  0  0  0  0  0
   -3.2067   47.9478  -19.8424 H   0  0  0  0  0  0  0  0  0  0  0  0
   -1.6589   47.5077  -19.1615 H   0  0  0  0  0  0  0  0  0  0  0  0
   -4.0066   50.1969  -22.5919 H   0  0  0  0  0  0  0  0  0  0  0  0
   -3.8603   50.1153  -24.3490 H   0  0  0  0  0  0  0  0  0  0  0  0
   -3.7366   47.4603  -23.4972 H   0  0  0  0  0  0  0  0  0  0  0  0
   -4.6679   47.9035  -21.3507 H   0  0  0  0  0  0  0  0  0  0  0  0
   -6.0778   47.5658  -22.2884 H   0  0  0  0  0  0  0  0  0  0  0  0
   -7.0790   50.6501  -20.7932 H   0  0  0  0  0  0  0  0  0  0  0  0
   -6.3887   49.2450  -20.0173 H   0  0  0  0  0  0  0  0  0  0  0  0
   -7.5956   49.0491  -21.2655 H   0  0  0  0  0  0  0  0  0  0  0  0
   -7.0412   50.7020  -23.0545 H   0  0  0  0  0  0  0  0  0  0  0  0
   -5.3488   50.7409  -23.5841 H   0  0  0  0  0  0  0  0  0  0  0  0
   -7.1914   48.4320  -23.8579 H   0  0  0  0  0  0  0  0  0  0  0  0
   -6.7247   49.5701  -25.1327 H   0  0  0  0  0  0  0  0  0  0  0  0
  1 24  1  0  0  0  0
  1 12  2  0  0  0  0
  2  3  1  0  0  0  0
  2  1  1  0  0  0  0
  2 35  1  1  0  0  0
  3  4  2  0  0  0  0
  3 36  1  0  0  0  0
  4  5  1  0  0  0  0
  4 11  1  0  0  0  0
  5  7  1  0  0  0  0
  6  5  1  0  0  0  0
  7  8  1  0  0  0  0
  7 37  1  0  0  0  0
  7 38  1  0  0  0  0
  8 10  1  0  0  0  0
  8  9  1  0  0  0  0
 10 13  1  0  0  0  0
 11 10  2  0  0  0  0
 12 11  1  0  0  0  0
 12 39  1  0  0  0  0
 13 15  1  0  0  0  0
 14 13  1  0  0  0  0
 15 22  2  0  0  0  0
 15 16  1  0  0  0  0
 16 18  2  0  0  0  0
 17 16  1  0  0  0  0
 18 19  1  0  0  0  0
 18 40  1  0  0  0  0
 19 20  1  0  0  0  0
 21 19  2  0  0  0  0
 21 41  1  0  0  0  0
 22 21  1  0  0  0  0
 23 22  1  0  0  0  0
 24 25  1  0  0  0  0
 25 42  1  0  0  0  0
 25 43  1  0  0  0  0
 25 44  1  0  0  0  0
 26  2  1  0  0  0  0
 27 26  1  0  0  0  0
 27 45  1  0  0  0  0
 27 46  1  0  0  0  0
 28 27  1  0  0  0  0
 28 29  1  0  0  0  0
 28 47  1  6  0  0  0
 29 30  1  0  0  0  0
 29 48  1  0  0  0  0
 29 49  1  0  0  0  0
 30 31  1  0  0  0  0
 31 50  1  0  0  0  0
 31 51  1  0  0  0  0
 31 52  1  0  0  0  0
 32 30  1  0  0  0  0
 32 53  1  0  0  0  0
 32 54  1  0  0  0  0
 33 32  1  0  0  0  0
 33 55  1  0  0  0  0
 33 56  1  0  0  0  0
 34 33  1  0  0  0  0
 34 28  1  0  0  0  0
M  END
>  <REMARK>
 VINA RESULT:      -6.7      4.041      7.557
  6 active torsions:
  status: ('A' for Active; 'I' for Inactive)
    1  A    between atoms: O_2  and  C_3 
    2  A    between atoms: C_4  and  O_5 
    3  A    between atoms: O_5  and  C_6 
    4  A    between atoms: C_6  and  C_7 
    5  A    between atoms: C_21  and  N_22 
    6  A    between atoms: N_22  and  C_24 

>  <TORSDO>
F 6

$$$$
resistance_project/docking/8faf60323ce63d5a/P00533_WT/docked/molecule_0012_out.pdbqt
 OpenBabel09142609553D

 56 59  0  0  1  0  0  0  0  0999 V2000
    0.6920   52.2350  -19.4840 C   0  0  0  0  0  0  0  0  0  0  0  0
    0.0750   51.1540  -20.1000 C   0  0  1  0  0  0  0  0  0  0  0  0
   -0.2120   50.0150  -19.3790 C   0  0  0  0  0  0  0  0  0  0  0  0
    0.1280   49.9710  -18.0260 C   0  0  0  0  0  0  0  0  0  0  0  0
   -0.1280   48.8860  -17.2740 N   0  0  0  0  0  0  0  0  0  0  0  0
   -0.5810   48.0770  -17.7020 H   0  0  0  0  0  0  0  0  0  0  0  0
    0.2000   48.8430  -15.9700 C   0  0  0  0  0  0  0  0  0  0  0  0
    0.7970   49.8870  -15.3720 N   0  0  0  0  0  0  0  0  0  0  0  0
    1.0350   49.8260  -14.3810 H   0  0  0  0  0  0  0  0  0  0  0  0
    1.0860   51.0030  -16.0470 C   0  0  0  0  0  0  0  0  0  0  0  0
    0.7420   51.0340  -17.3920 C   0  0  0  0  0  0  0  0  0  0  0  0
    1.0120   52.1520  -18.1440 C   0  0  0  0  0  0  0  0  0  0  0  0
    1.7060   52.1400  -15.5100 N   0  0  0  0  0  0  0  0  0  0  0  0
    1.3220   53.0670  -15.6950 H   0  0  0  0  0  0  0  0  0  0  0  0
    2.8550   52.0040  -14.7170 C   0  0  0  0  0  0  0  0  0  0  0  0
    2.8100   51.6600  -13.3660 C   0  0  0  0  0  0  0  0  0  0  0  0
    1.6000   51.4450  -12.7840 F   0  0  0  0  0  0  0  0  0  0  0  0
    3.9990   51.5450  -12.6420 C   0  0  0  0  0  0  0  0  0  0  0  0
    5.2360   51.7710  -13.2540 C   0  0  0  0  0  0  0  0  0  0  0  0
    6.8650   51.6070  -12.2420 Br  0  0  0  0  0  0  0  0  0  0  0  0
    5.2780   52.1140  -14.6050 C   0  0  0  0  0  0  0  0  0  0  0  0
    4.0910   52.2300  -15.3300 C   0  0  0  0  0  0  0  0  0  0  0  0
    4.1270   52.5670  -16.6570 F   0  0  0  0  0  0  0  0  0  0  0  0
    0.9920   53.3870  -20.1740 O   0  0  0  0  0  0  0  0  0  0  0  0
    2.3140   53.5600  -20.6470 C   0  0  0  0  0  0  0  0  0  0  0  0
   -0.2200   51.3030  -21.4470 O   0  0  0  0  0  0  0  0  0  0  0  0
   -1.0680   50.4050  -22.1000 C   0  0  0  0  0  0  0  0  0  0  0  0
   -1.7130   51.0250  -23.3330 C   0  0  1  0  0  0  0  0  0  0  0  0
   -2.4660   49.9190  -24.0430 C   0  0  0  0  0  0  0  0  0  0  0  0
   -3.0130   49.0620  -23.0080 N   0  0  0  0  0  0  0  0  0  0  0  0
   -3.9890   48.1330  -23.5420 C   0  0  0  0  0  0  0  0  0  0  0  0
   -3.5620   49.9150  -21.9840 C   0  0  0  0  0  0  0  0  0  0  0  0
   -3.8250   51.3090  -22.4620 C   0  0  0  0  0  0  0  0  0  0  0  0
   -2.6720   51.9590  -22.8910 O   0  0  0  0  0  0  0  0  0  0  0  0
   -0.3154   50.1606  -20.0246 H   0  0  0  0  0  0  0  0  0  0  0  0
   -0.6703   49.2087  -19.8316 H   0  0  0  0  0  0  0  0  0  0  0  0
    0.8566   48.0068  -15.8489 H   0  0  0  0  0  0  0  0  0  0  0  0
   -0.7548   48.8104  -15.4882 H   0  0  0  0  0  0  0  0  0  0  0  0
    1.4702   52.9580  -17.6908 H   0  0  0  0  0  0  0  0  0  0  0  0
    3.9642   51.2900  -11.6426 H   0  0  0  0  0  0  0  0  0  0  0  0
    6.1850   52.2817  -15.0679 H   0  0  0  0  0  0  0  0  0  0  0  0
    2.3899   54.4964  -21.1592 H   0  0  0  0  0  0  0  0  0  0  0  0
    2.5591   52.7647  -21.3195 H   0  0  0  0  0  0  0  0  0  0  0  0
    2.9929   53.5498  -19.8200 H   0  0  0  0  0  0  0  0  0  0  0  0
   -0.5002   49.5492  -22.4002 H   0  0  0  0  0  0  0  0  0  0  0  0
   -1.8479   50.1320  -21.4202 H   0  0  0  0  0  0  0  0  0  0  0  0
   -0.9831   51.4845  -23.9663 H   0  0  0  0  0  0  0  0  0  0  0  0
   -1.8010   49.3628  -24.6701 H   0  0  0  0  0  0  0  0  0  0  0  0
   -3.2404   50.3162  -24.6654 H   0  0  0  0  0  0  0  0  0  0  0  0
   -3.5299   47.5270  -24.2950 H   0  0  0  0  0  0  0  0  0  0  0  0
   -4.8034   48.6786  -23.9708 H   0  0  0  0  0  0  0  0  0  0  0  0
   -4.3542   47.5075  -22.7544 H   0  0  0  0  0  0  0  0  0  0  0  0
   -2.8695   49.9589  -21.1695 H   0  0  0  0  0  0  0  0  0  0  0  0
   -4.5010   49.4959  -21.6882 H   0  0  0  0  0  0  0  0  0  0  0  0
   -4.5165   51.2659  -23.2774 H   0  0  0  0  0  0  0  0  0  0  0  0
   -4.2188   51.8636  -21.6360 H   0  0  0  0  0  0  0  0  0  0  0  0
  1 12  2  0  0  0  0
  2  1  1  0  0  0  0
  2  3  1  0  0  0  0
  2 35  1  6  0  0  0
  3  4  2  0  0  0  0
  3 36  1  0  0  0  0
  4 11  1  0  0  0  0
  4  5  1  0  0  0  0
  5  7  1  0  0  0  0
  6  5  1  0  0  0  0
  7  8  1  0  0  0  0
  7 37  1  0  0  0  0
  7 38  1  0  0  0  0
  8  9  1  0  0  0  0
 10 13  1  0  0  0  0
 10  8  1  0  0  0  0
 11 10  2  0  0  0  0
 12 11  1  0  0  0  0
 12 39  1  0  0  0  0
 13 15  1  0  0  0  0
 14 13  1  0  0  0  0
 15 16  1  0  0  0  0
 16 17  1  0  0  0  0
 16 18  2  0  0  0  0
 18 40  1  0  0  0  0
 19 18  1  0  0  0  0
 19 20  1  0  0  0  0
 21 19  2  0  0  0  0
 21 41  1  0  0  0  0
 22 15  2  0  0  0  0
 22 21  1  0  0  0  0
 23 22  1  0  0  0  0
 24  1  1  0  0  0  0
 25 24  1  0  0  0  0
 25 42  1  0  0  0  0
 25 43  1  0  0  0  0
 25 44  1  0  0  0  0
 26  2  1  0  0  0  0
 27 26  1  0  0  0  0
 27 45  1  0  0  0  0
 27 46  1  0  0  0  0
 28 34  1  0  0  0  0
 28 27  1  0  0  0  0
 28 47  1  6  0  0  0
 29 28  1  0  0  0  0
 29 30  1  0  0  0  0
 29 48  1  0  0  0  0
 29 49  1  0  0  0  0
 30 32  1  0  0  0  0
 31 30  1  0  0  0  0
 31 50  1  0  0  0  0
 31 51  1  0  0  0  0
 31 52  1  0  0  0  0
 32 53  1  0  0  0  0
 32 54  1  0  0  0  0
 33 32  1  0  0  0  0
 33 55  1  0  0  0  0
 33 56  1  0  0  0  0
 34 33  1  0  0  0  0
M  END
>  <REMARK>
 VINA RESULT:      -6.7      4.971      8.769
  6 active torsions:
  status: ('A' for Active; 'I' for Inactive)
    1  A    between atoms: O_2  and  C_3 
    2  A    between atoms: C_4  and  O_5 
    3  A    between atoms: O_5  and  C_6 
    4  A    between atoms: C_6  and  C_7 
    5  A    between atoms: C_21  and  N_22 
    6  A    between atoms: N_22  and  C_24 

>  <TORSDO>
F 6

$$$$
