resistance_project/docking/8faf60323ce63d5a/P00533_WT/docked/molecule_0007_out.pdbqt
 OpenBabel09142609543D

 99106  0  0  1  0  0  0  0  0999 V2000
   -1.3630   48.5570  -17.1350 C   0  0  1  0  0  0  0  0  0  0  0  0
   -0.2480   49.3060  -17.3120 N   0  0  0  0  0  0  0  0  0  0  0  0
    0.5070   48.9480  -17.8970 H   0  0  0  0  0  0  0  0  0  0  0  0
   -0.1150   50.5170  -16.7300 C   0  0  1  0  0  0  0  0  0  0  0  0
   -1.1690   50.9500  -15.9500 C   0  0  0  0  0  0  0  0  0  0  0  0
   -2.3050   50.1790  -15.7730 C   0  0  0  0  0  0  0  0  0  0  0  0
   -2.3930   48.9930  -16.3660 N   0  0  0  0  0  0  0  0  0  0  0  0
   -3.2250   48.4150  -16.2430 H   0  0  0  0  0  0  0  0  0  0  0  0
    1.0670   51.3540  -16.8920 C   0  0  0  0  0  0  0  0  0  0  0  0
    1.3380   52.0620  -18.0670 C   0  0  0  0  0  0  0  0  0  0  0  0
    2.5030   52.7190  -17.8530 N   0  0  0  0  0  0  0  0  0  0  0  0
    2.9420   52.4370  -16.6000 C   0  0  0  0  0  0  0  0  0  0  0  0
    2.9730   53.3280  -18.5230 H   0  0  0  0  0  0  0  0  0  0  0  0
    4.0380   52.8070  -15.8470 C   0  0  0  0  0  0  0  0  0  0  0  0
    2.0640   51.6040  -16.0190 N   0  0  0  0  0  0  0  0  0  0  0  0
    4.2420   52.3580  -14.5610 C   0  0  0  0  0  0  0  0  0  0  0  0
    3.3160   51.5050  -14.0060 C   0  0  0  0  0  0  0  0  0  0  0  0
    2.2280   51.1460  -14.7680 C   0  0  0  0  0  0  0  0  0  0  0  0
    0.4980   52.0530  -19.2590 C   0  0  0  0  0  0  0  0  0  0  0  0
    0.9760   52.4070  -20.4800 C   0  0  0  0  0  0  0  0  0  0  0  0
    0.1830   52.3960  -21.5880 C   0  0  0  0  0  0  0  0  0  0  0  0
   -1.1370   52.0140  -21.4600 C   0  0  0  0  0  0  0  0  0  0  0  0
   -1.6490   51.6480  -20.2250 C   0  0  0  0  0  0  0  0  0  0  0  0
   -0.8210   51.6700  -19.1210 C   0  0  0  0  0  0  0  0  0  0  0  0
    0.7140   52.7880  -22.9130 C   0  0  0  0  0  0  0  0  0  0  0  0
    1.3650   53.8610  -23.0000 O   0  0  0  0  0  0  0  0  0  0  0  0
    0.4680   51.9380  -24.0300 N   0  0  0  0  0  0  0  0  0  0  0  0
   -0.0940   51.1000  -23.8730 H   0  0  0  0  0  0  0  0  0  0  0  0
    0.9460   52.1730  -25.3350 C   0  0  0  0  0  0  0  0  0  0  0  0
    0.1840   53.0520  -26.1200 C   0  0  0  0  0  0  0  0  0  0  0  0
   -0.9460   53.6220  -25.6110 F   0  0  0  0  0  0  0  0  0  0  0  0
    0.5950   53.3320  -27.4150 C   0  0  0  0  0  0  0  0  0  0  0  0
    1.7270   52.7610  -27.9230 C   0  0  0  0  0  0  0  0  0  0  0  0
    2.4660   51.8990  -27.1430 C   0  0  0  0  0  0  0  0  0  0  0  0
    2.0930   51.5950  -25.8520 C   0  0  0  0  0  0  0  0  0  0  0  0
    2.7810   50.7610  -25.0540 F   0  0  0  0  0  0  0  0  0  0  0  0
   -1.5320   47.2790  -17.7350 N   0  0  0  0  0  0  0  0  0  0  0  0
   -1.2710   46.4480  -17.2040 H   0  0  0  0  0  0  0  0  0  0  0  0
   -2.0540   47.1170  -19.0480 C   0  0  0  0  0  0  0  0  0  0  0  0
   -3.0970   46.2570  -19.3430 C   0  0  0  0  0  0  0  0  0  0  0  0
   -3.5260   46.1790  -20.6410 C   0  0  0  0  0  0  0  0  0  0  0  0
   -2.9410   46.9340  -21.6290 C   0  0  0  0  0  0  0  0  0  0  0  0
   -1.9010   47.7990  -21.3650 C   0  0  0  0  0  0  0  0  0  0  0  0
   -1.4730   47.8730  -20.0570 C   0  0  0  0  0  0  0  0  0  0  0  0
   -3.6300   45.5340  -18.2950 O   0  0  0  0  0  0  0  0  0  0  0  0
   -3.6110   44.1220  -18.4000 C   0  0  0  0  0  0  0  0  0  0  0  0
   -3.4260   46.8200  -22.9670 N   0  0  0  0  0  0  0  0  0  0  0  0
   -2.6130   47.1330  -24.1270 C   0  0  0  0  0  0  0  0  0  0  0  0
   -3.5210   47.2210  -25.3280 C   0  0  0  0  0  0  0  0  0  0  0  0
   -4.7000   48.0710  -24.9910 C   0  0  1  0  0  0  0  0  0  0  0  0
   -5.5240   47.5340  -23.8450 C   0  0  0  0  0  0  0  0  0  0  0  0
   -4.7820   46.3730  -23.2220 C   0  0  0  0  0  0  0  0  0  0  0  0
   -4.3840   49.4610  -24.7930 N   0  0  0  0  0  0  0  0  0  0  0  0
   -4.0100   50.0370  -26.0640 C   0  0  0  0  0  0  0  0  0  0  0  0
   -3.5270   51.4480  -25.8150 C   0  0  0  0  0  0  0  0  0  0  0  0
   -3.0140   51.5100  -24.3910 C   0  0  0  0  0  0  0  0  0  0  0  0
   -4.0970   52.0720  -23.5040 C   0  0  0  0  0  0  0  0  0  0  0  0
   -5.1610   51.0820  -23.1570 C   0  0  0  0  0  0  0  0  0  0  0  0
   -5.5340   50.1550  -24.2970 C   0  0  0  0  0  0  0  0  0  0  0  0
   -1.1083   51.8707  -15.4878 H   0  0  0  0  0  0  0  0  0  0  0  0
   -3.0792   50.5233  -15.1839 H   0  0  0  0  0  0  0  0  0  0  0  0
    4.7327   53.4459  -16.2644 H   0  0  0  0  0  0  0  0  0  0  0  0
    4.2937   53.2208  -13.9303 H   0  0  0  0  0  0  0  0  0  0  0  0
    3.4340   51.1449  -13.0461 H   0  0  0  0  0  0  0  0  0  0  0  0
    1.5211   50.5093  -14.3681 H   0  0  0  0  0  0  0  0  0  0  0  0
    1.9639   52.6913  -20.5708 H   0  0  0  0  0  0  0  0  0  0  0  0
   -1.7484   52.0007  -22.2913 H   0  0  0  0  0  0  0  0  0  0  0  0
   -2.6365   51.3628  -20.1322 H   0  0  0  0  0  0  0  0  0  0  0  0
   -1.1871   51.4007  -18.1945 H   0  0  0  0  0  0  0  0  0  0  0  0
    0.0408   53.9772  -27.9995 H   0  0  0  0  0  0  0  0  0  0  0  0
    2.0274   52.9744  -28.8870 H   0  0  0  0  0  0  0  0  0  0  0  0
    3.3192   51.4708  -27.5349 H   0  0  0  0  0  0  0  0  0  0  0  0
   -4.3019   45.5424  -20.8814 H   0  0  0  0  0  0  0  0  0  0  0  0
   -1.4641   48.3636  -22.1102 H   0  0  0  0  0  0  0  0  0  0  0  0
   -0.6965   48.5102  -19.8203 H   0  0  0  0  0  0  0  0  0  0  0  0
   -4.0522   43.6933  -17.5245 H   0  0  0  0  0  0  0  0  0  0  0  0
   -2.5997   43.7847  -18.4914 H   0  0  0  0  0  0  0  0  0  0  0  0
   -4.1668   43.8210  -19.2634 H   0  0  0  0  0  0  0  0  0  0  0  0
   -2.1159   48.0689  -23.9792 H   0  0  0  0  0  0  0  0  0  0  0  0
   -1.8742   46.3736  -24.2767 H   0  0  0  0  0  0  0  0  0  0  0  0
   -2.9887   47.6563  -26.1478 H   0  0  0  0  0  0  0  0  0  0  0  0
   -3.8512   46.2406  -25.6013 H   0  0  0  0  0  0  0  0  0  0  0  0
   -5.3082   48.0178  -25.8697 H   0  0  0  0  0  0  0  0  0  0  0  0
   -6.4740   47.2018  -24.2083 H   0  0  0  0  0  0  0  0  0  0  0  0
   -5.6816   48.3014  -23.1162 H   0  0  0  0  0  0  0  0  0  0  0  0
   -4.7736   45.5401  -23.8937 H   0  0  0  0  0  0  0  0  0  0  0  0
   -5.2565   46.0607  -22.3153 H   0  0  0  0  0  0  0  0  0  0  0  0
   -3.2271   49.4585  -26.5083 H   0  0  0  0  0  0  0  0  0  0  0  0
   -4.8478   50.0435  -26.7295 H   0  0  0  0  0  0  0  0  0  0  0  0
   -4.3346   52.1383  -25.9426 H   0  0  0  0  0  0  0  0  0  0  0  0
   -2.7525   51.7083  -26.5059 H   0  0  0  0  0  0  0  0  0  0  0  0
   -2.1510   52.1411  -24.3475 H   0  0  0  0  0  0  0  0  0  0  0  0
   -2.7476   50.5283  -24.0592 H   0  0  0  0  0  0  0  0  0  0  0  0
   -4.5544   52.8965  -24.0099 H   0  0  0  0  0  0  0  0  0  0  0  0
   -3.6303   52.3649  -22.5868 H   0  0  0  0  0  0  0  0  0  0  0  0
   -4.8131   50.4866  -22.3389 H   0  0  0  0  0  0  0  0  0  0  0  0
   -6.0390   51.6429  -22.9133 H   0  0  0  0  0  0  0  0  0  0  0  0
   -6.2495   49.4406  -23.9469 H   0  0  0  0  0  0  0  0  0  0  0  0
   -5.9465   50.7413  -25.0913 H   0  0  0  0  0  0  0  0  0  0  0  0
  1 37  1  6  0  0  0
  1  7  1  0  0  0  0
  2  1  1  0  0  0  0
  2  4  1  0  0  0  0
  3  2  1  0  0  0  0
  4  9  1  1  0  0  0
  4  5  1  0  0  0  0
  5  6  2  0  0  0  0
  5 60  1  0  0  0  0
  6 61  1  0  0  0  0
  7  8  1  0  0  0  0
  7  6  1  0  0  0  0
  9 15  1  0  0  0  0
 10 11  1  0  0  0  0
 10  9  2  0  0  0  0
 11 12  1  0  0  0  0
 12 15  1  0  0  0  0
 12 14  2  0  0  0  0
 13 11  1  0  0  0  0
 14 16  1  0  0  0  0
 14 62  1  0  0  0  0
 15 18  1  0  0  0  0
 16 17  1  0  0  0  0
 16 63  1  0  0  0  0
 17 64  1  0  0  0  0
 18 17  2  0  0  0  0
 18 65  1  0  0  0  0
 19 24  1  0  0  0  0
 19 10  1  0  0  0  0
 20 19  2  0  0  0  0
 20 66  1  0  0  0  0
 21 22  2  0  0  0  0
 21 20  1  0  0  0  0
 22 23  1  0  0  0  0
 22 67  1  0  0  0  0
 23 24  2  0  0  0  0
 23 68  1  0  0  0  0
 24 69  1  0  0  0  0
 25 21  1  0  0  0  0
 26 25  2  0  0  0  0
 27 28  1  0  0  0  0
 27 25  1  0  0  0  0
 29 27  1  0  0  0  0
 30 31  1  0  0  0  0
 30 29  2  0  0  0  0
 32 30  1  0  0  0  0
 32 70  1  0  0  0  0
 33 32  2  0  0  0  0
 33 34  1  0  0  0  0
 33 71  1  0  0  0  0
 34 35  2  0  0  0  0
 34 72  1  0  0  0  0
 35 29  1  0  0  0  0
 35 36  1  0  0  0  0
 37 38  1  0  0  0  0
 39 37  1  0  0  0  0
 40 39  1  0  0  0  0
 40 45  1  0  0  0  0
 41 40  2  0  0  0  0
 41 73  1  0  0  0  0
 42 43  2  0  0  0  0
 42 41  1  0  0  0  0
 43 44  1  0  0  0  0
 43 74  1  0  0  0  0
 44 39  2  0  0  0  0
 44 75  1  0  0  0  0
 46 45  1  0  0  0  0
 46 76  1  0  0  0  0
 46 77  1  0  0  0  0
 46 78  1  0  0  0  0
 47 42  1  0  0  0  0
 48 47  1  0  0  0  0
 48 79  1  0  0  0  0
 48 80  1  0  0  0  0
 49 50  1  0  0  0  0
 49 48  1  0  0  0  0
 49 81  1  0  0  0  0
 49 82  1  0  0  0  0
 50 53  1  0  0  0  0
 50 51  1  0  0  0  0
 50 83  1  6  0  0  0
 51 52  1  0  0  0  0
 51 84  1  0  0  0  0
 51 85  1  0  0  0  0
 52 47  1  0  0  0  0
 52 86  1  0  0  0  0
 52 87  1  0  0  0  0
 53 59  1  0  0  0  0
 54 55  1  0  0  0  0
 54 53  1  0  0  0  0
 54 88  1  0  0  0  0
 54 89  1  0  0  0  0
 55 56  1  0  0  0  0
 55 90  1  0  0  0  0
 55 91  1  0  0  0  0
 56 57  1  0  0  0  0
 56 92  1  0  0  0  0
 56 93  1  0  0  0  0
 57 58  1  0  0  0  0
 57 94  1  0  0  0  0
 57 95  1  0  0  0  0
 58 96  1  0  0  0  0
 58 97  1  0  0  0  0
 59 58  1  0  0  0  0
 59 98  1  0  0  0  0
 59 99  1  0  0  0  0
M  END
>  <MODEL>
1

>  <REMARK>
 VINA RESULT:     -10.6      0.000      0.000
  9 active torsions:
  status: ('A' for Active; 'I' for Inactive)
    1  A    between atoms: O_2  and  C_3 
    2  A    between atoms: C_4  and  N_5 
    3  A    between atoms: N_5  and  C_7 
    4  A    between atoms: C_10  and  C_11 
    5  A    between atoms: C_12  and  C_13 
    6  A    between atoms: C_15  and  C_16 
       I    between atoms: C_16  and  N_18 
    7  A    between atoms: N_18  and  C_20 
    8  A    between atoms: C_45  and  N_46 
    9  A    between atoms: C_49  and  N_50 

>  <TORSDO>
F 9

$$$$
resistance_project/docking/8faf60323ce63d5a/P00533_WT/docked/molecule_0007_out.pdbqt
 OpenBabel09142609543D

 99106  0  0  1  0  0  0  0  0999 V2000
   -1.5710   46.9120  -15.5040 C   0  0  1  0  0  0  0  0  0  0  0  0
   -1.9920   48.1280  -15.0770 N   0  0  0  0  0  0  0  0  0  0  0  0
   -2.7190   48.6160  -15.6000 H   0  0  0  0  0  0  0  0  0  0  0  0
   -1.4670   48.7060  -13.9760 C   0  0  1  0  0  0  0  0  0  0  0  0
   -0.4860   47.9980  -13.3100 C   0  0  0  0  0  0  0  0  0  0  0  0
   -0.0610   46.7560  -13.7520 C   0  0  0  0  0  0  0  0  0  0  0  0
   -0.6060   46.2250  -14.8410 N   0  0  0  0  0  0  0  0  0  0  0  0
   -0.3010   45.3110  -15.1770 H   0  0  0  0  0  0  0  0  0  0  0  0
   -1.8890   50.0120  -13.4840 C   0  0  0  0  0  0  0  0  0  0  0  0
   -1.2800   51.2040  -13.8830 C   0  0  0  0  0  0  0  0  0  0  0  0
   -1.9300   52.1980  -13.2300 N   0  0  0  0  0  0  0  0  0  0  0  0
   -2.9030   51.6530  -12.4580 C   0  0  0  0  0  0  0  0  0  0  0  0
   -1.7230   53.1940  -13.3080 H   0  0  0  0  0  0  0  0  0  0  0  0
   -3.8590   52.1550  -11.5970 C   0  0  0  0  0  0  0  0  0  0  0  0
   -2.8740   50.3200  -12.6150 N   0  0  0  0  0  0  0  0  0  0  0  0
   -4.7480   51.3490  -10.9220 C   0  0  0  0  0  0  0  0  0  0  0  0
   -4.6820   49.9880  -11.1140 C   0  0  0  0  0  0  0  0  0  0  0  0
   -3.7250   49.5010  -11.9760 C   0  0  0  0  0  0  0  0  0  0  0  0
   -0.1640   51.3000  -14.8170 C   0  0  0  0  0  0  0  0  0  0  0  0
   -0.3330   51.1580  -16.1570 C   0  0  0  0  0  0  0  0  0  0  0  0
    0.7150   51.2480  -17.0220 C   0  0  0  0  0  0  0  0  0  0  0  0
    1.9770   51.4900  -16.5180 C   0  0  0  0  0  0  0  0  0  0  0  0
    2.1760   51.6390  -15.1550 C   0  0  0  0  0  0  0  0  0  0  0  0
    1.0940   51.5410  -14.3040 C   0  0  0  0  0  0  0  0  0  0  0  0
    0.5200   51.0880  -18.4810 C   0  0  0  0  0  0  0  0  0  0  0  0
    0.4830   49.9220  -18.9520 O   0  0  0  0  0  0  0  0  0  0  0  0
    0.3830   52.2540  -19.2880 N   0  0  0  0  0  0  0  0  0  0  0  0
    0.4540   53.1610  -18.8250 H   0  0  0  0  0  0  0  0  0  0  0  0
    0.1570   52.2420  -20.6790 C   0  0  0  0  0  0  0  0  0  0  0  0
    1.2220   52.6800  -21.4800 C   0  0  0  0  0  0  0  0  0  0  0  0
    2.3910   53.0850  -20.9050 F   0  0  0  0  0  0  0  0  0  0  0  0
    1.0710   52.6940  -22.8590 C   0  0  0  0  0  0  0  0  0  0  0  0
   -0.0990   52.2880  -23.4330 C   0  0  0  0  0  0  0  0  0  0  0  0
   -1.1390   51.8610  -22.6370 C   0  0  0  0  0  0  0  0  0  0  0  0
   -1.0300   51.8310  -21.2640 C   0  0  0  0  0  0  0  0  0  0  0  0
   -2.0150   51.4230  -20.4460 F   0  0  0  0  0  0  0  0  0  0  0  0
   -2.1040   46.2770  -16.6590 N   0  0  0  0  0  0  0  0  0  0  0  0
   -1.8580   45.3050  -16.8440 H   0  0  0  0  0  0  0  0  0  0  0  0
   -2.9690   46.9490  -17.5680 C   0  0  0  0  0  0  0  0  0  0  0  0
   -4.3470   46.9350  -17.4440 C   0  0  0  0  0  0  0  0  0  0  0  0
   -5.0870   47.6190  -18.3720 C   0  0  0  0  0  0  0  0  0  0  0  0
   -4.4830   48.3030  -19.3990 C   0  0  0  0  0  0  0  0  0  0  0  0
   -3.1130   48.3340  -19.5470 C   0  0  0  0  0  0  0  0  0  0  0  0
   -2.3720   47.6450  -18.6110 C   0  0  0  0  0  0  0  0  0  0  0  0
   -4.8760   46.2250  -16.3860 O   0  0  0  0  0  0  0  0  0  0  0  0
   -5.4760   44.9760  -16.6740 C   0  0  0  0  0  0  0  0  0  0  0  0
   -5.2980   49.0030  -20.3400 N   0  0  0  0  0  0  0  0  0  0  0  0
   -6.3450   48.3560  -21.1070 C   0  0  0  0  0  0  0  0  0  0  0  0
   -6.7660   49.2920  -22.2120 C   0  0  0  0  0  0  0  0  0  0  0  0
   -5.5500   49.8160  -22.9000 C   0  0  1  0  0  0  0  0  0  0  0  0
   -4.6240   50.5860  -21.9890 C   0  0  0  0  0  0  0  0  0  0  0  0
   -5.1060   50.4230  -20.5650 C   0  0  0  0  0  0  0  0  0  0  0  0
   -4.8270   48.8250  -23.6520 N   0  0  0  0  0  0  0  0  0  0  0  0
   -5.1050   49.0150  -25.0570 C   0  0  0  0  0  0  0  0  0  0  0  0
   -4.4720   47.8720  -25.8190 C   0  0  0  0  0  0  0  0  0  0  0  0
   -4.3700   46.6940  -24.8720 C   0  0  0  0  0  0  0  0  0  0  0  0
   -2.9770   46.6500  -24.2930 C   0  0  0  0  0  0  0  0  0  0  0  0
   -2.7510   47.6430  -23.2010 C   0  0  0  0  0  0  0  0  0  0  0  0
   -3.4200   48.9830  -23.4390 C   0  0  0  0  0  0  0  0  0  0  0  0
   -0.0593   48.4041  -12.4626 H   0  0  0  0  0  0  0  0  0  0  0  0
    0.6747   46.2461  -13.2384 H   0  0  0  0  0  0  0  0  0  0  0  0
   -3.9091   53.1758  -11.4537 H   0  0  0  0  0  0  0  0  0  0  0  0
   -5.7322   51.6597  -11.2044 H   0  0  0  0  0  0  0  0  0  0  0  0
   -5.3309   49.3508  -10.6261 H   0  0  0  0  0  0  0  0  0  0  0  0
   -3.6603   48.4833  -12.1346 H   0  0  0  0  0  0  0  0  0  0  0  0
   -1.2786   50.9775  -16.5288 H   0  0  0  0  0  0  0  0  0  0  0  0
    2.7799   51.5606  -17.1625 H   0  0  0  0  0  0  0  0  0  0  0  0
    3.1206   51.8208  -14.7812 H   0  0  0  0  0  0  0  0  0  0  0  0
    1.2255   51.6478  -13.2860 H   0  0  0  0  0  0  0  0  0  0  0  0
    1.8497   53.0140  -23.4558 H   0  0  0  0  0  0  0  0  0  0  0  0
   -0.2040   52.3009  -24.4596 H   0  0  0  0  0  0  0  0  0  0  0  0
   -2.0202   51.5565  -23.0794 H   0  0  0  0  0  0  0  0  0  0  0  0
   -6.1164   47.6205  -18.2983 H   0  0  0  0  0  0  0  0  0  0  0  0
   -2.6639   48.8481  -20.3210 H   0  0  0  0  0  0  0  0  0  0  0  0
   -1.3428   47.6464  -18.6876 H   0  0  0  0  0  0  0  0  0  0  0  0
   -5.8410   44.5384  -15.7684 H   0  0  0  0  0  0  0  0  0  0  0  0
   -4.7510   44.3258  -17.1173 H   0  0  0  0  0  0  0  0  0  0  0  0
   -6.2896   45.1195  -17.3540 H   0  0  0  0  0  0  0  0  0  0  0  0
   -5.9757   47.4434  -21.5262 H   0  0  0  0  0  0  0  0  0  0  0  0
   -7.1792   48.1295  -20.4764 H   0  0  0  0  0  0  0  0  0  0  0  0
   -7.3758   48.7643  -22.9153 H   0  0  0  0  0  0  0  0  0  0  0  0
   -7.3254   50.1060  -21.8004 H   0  0  0  0  0  0  0  0  0  0  0  0
   -5.9447   50.5115  -23.6109 H   0  0  0  0  0  0  0  0  0  0  0  0
   -4.6335   51.6219  -22.2568 H   0  0  0  0  0  0  0  0  0  0  0  0
   -3.6251   50.2140  -22.0826 H   0  0  0  0  0  0  0  0  0  0  0  0
   -6.0302   50.9446  -20.4283 H   0  0  0  0  0  0  0  0  0  0  0  0
   -4.3953   50.8256  -19.8738 H   0  0  0  0  0  0  0  0  0  0  0  0
   -6.1624   49.0185  -25.2204 H   0  0  0  0  0  0  0  0  0  0  0  0
   -4.7059   49.9499  -25.3911 H   0  0  0  0  0  0  0  0  0  0  0  0
   -3.4969   48.1542  -26.1573 H   0  0  0  0  0  0  0  0  0  0  0  0
   -5.0618   47.6174  -26.6747 H   0  0  0  0  0  0  0  0  0  0  0  0
   -4.5661   45.7870  -25.4048 H   0  0  0  0  0  0  0  0  0  0  0  0
   -5.0864   46.7996  -24.0842 H   0  0  0  0  0  0  0  0  0  0  0  0
   -2.2779   46.8466  -25.0788 H   0  0  0  0  0  0  0  0  0  0  0  0
   -2.8461   45.6781  -23.8649 H   0  0  0  0  0  0  0  0  0  0  0  0
   -1.6976   47.8048  -23.1058 H   0  0  0  0  0  0  0  0  0  0  0  0
   -3.1861   47.2325  -22.3138 H   0  0  0  0  0  0  0  0  0  0  0  0
   -3.2637   49.6084  -22.5850 H   0  0  0  0  0  0  0  0  0  0  0  0
   -2.9913   49.4269  -24.3131 H   0  0  0  0  0  0  0  0  0  0  0  0
  1 37  1  1  0  0  0
  1  2  1  0  0  0  0
  1  7  1  0  0  0  0
  2  4  1  0  0  0  0
  3  2  1  0  0  0  0
  4  9  1  6  0  0  0
  4  5  1  0  0  0  0
  5 60  1  0  0  0  0
  6  5  2  0  0  0  0
  6 61  1  0  0  0  0
  7  6  1  0  0  0  0
  8  7  1  0  0  0  0
  9 15  1  0  0  0  0
 10  9  2  0  0  0  0
 10 11  1  0  0  0  0
 11 12  1  0  0  0  0
 12 14  2  0  0  0  0
 13 11  1  0  0  0  0
 14 16  1  0  0  0  0
 14 62  1  0  0  0  0
 15 12  1  0  0  0  0
 15 18  1  0  0  0  0
 16 63  1  0  0  0  0
 17 16  1  0  0  0  0
 17 64  1  0  0  0  0
 18 17  2  0  0  0  0
 18 65  1  0  0  0  0
 19 24  1  0  0  0  0
 19 10  1  0  0  0  0
 20 19  2  0  0  0  0
 20 66  1  0  0  0  0
 21 22  2  0  0  0  0
 21 20  1  0  0  0  0
 22 23  1  0  0  0  0
 22 67  1  0  0  0  0
 23 24  2  0  0  0  0
 23 68  1  0  0  0  0
 24 69  1  0  0  0  0
 25 21  1  0  0  0  0
 26 25  2  0  0  0  0
 27 28  1  0  0  0  0
 27 25  1  0  0  0  0
 29 27  1  0  0  0  0
 30 31  1  0  0  0  0
 30 29  2  0  0  0  0
 32 30  1  0  0  0  0
 32 70  1  0  0  0  0
 33 32  2  0  0  0  0
 33 34  1  0  0  0  0
 33 71  1  0  0  0  0
 34 35  2  0  0  0  0
 34 72  1  0  0  0  0
 35 29  1  0  0  0  0
 35 36  1  0  0  0  0
 38 37  1  0  0  0  0
 39 40  1  0  0  0  0
 39 37  1  0  0  0  0
 40 45  1  0  0  0  0
 41 40  2  0  0  0  0
 41 73  1  0  0  0  0
 42 41  1  0  0  0  0
 43 42  2  0  0  0  0
 43 44  1  0  0  0  0
 43 74  1  0  0  0  0
 44 39  2  0  0  0  0
 44 75  1  0  0  0  0
 46 45  1  0  0  0  0
 46 76  1  0  0  0  0
 46 77  1  0  0  0  0
 46 78  1  0  0  0  0
 47 42  1  0  0  0  0
 48 47  1  0  0  0  0
 48 79  1  0  0  0  0
 48 80  1  0  0  0  0
 49 48  1  0  0  0  0
 49 81  1  0  0  0  0
 49 82  1  0  0  0  0
 50 49  1  0  0  0  0
 50 51  1  0  0  0  0
 50 83  1  6  0  0  0
 51 52  1  0  0  0  0
 51 84  1  0  0  0  0
 51 85  1  0  0  0  0
 52 47  1  0  0  0  0
 52 86  1  0  0  0  0
 52 87  1  0  0  0  0
 53 59  1  0  0  0  0
 53 50  1  0  0  0  0
 54 53  1  0  0  0  0
 54 88  1  0  0  0  0
 54 89  1  0  0  0  0
 55 54  1  0  0  0  0
 55 56  1  0  0  0  0
 55 90  1  0  0  0  0
 55 91  1  0  0  0  0
 56 57  1  0  0  0  0
 56 92  1  0  0  0  0
 56 93  1  0  0  0  0
 57 58  1  0  0  0  0
 57 94  1  0  0  0  0
 57 95  1  0  0  0  0
 58 96  1  0  0  0  0
 58 97  1  0  0  0  0
 59 58  1  0  0  0  0
 59 98  1  0  0  0  0
 59 99  1  0  0  0  0
M  END
>  <REMARK>
 VINA RESULT:     -10.0      2.768      4.887
  9 active torsions:
  status: ('A' for Active; 'I' for Inactive)
    1  A    between atoms: O_2  and  C_3 
    2  A    between atoms: C_4  and  N_5 
    3  A    between atoms: N_5  and  C_7 
    4  A    between atoms: C_10  and  C_11 
    5  A    between atoms: C_12  and  C_13 
    6  A    between atoms: C_15  and  C_16 
       I    between atoms: C_16  and  N_18 
    7  A    between atoms: N_18  and  C_20 
    8  A    between atoms: C_45  and  N_46 
    9  A    between atoms: C_49  and  N_50 

>  <TORSDO>
F 9

$$$$
resistance_project/docking/8faf60323ce63d5a/P00533_WT/docked/molecule_0007_out.pdbqt
 OpenBabel09142609543D

 99106  0  0  1  0  0  0  0  0999 V2000
   -4.7590   45.2010  -23.5670 C   0  0  1  0  0  0  0  0  0  0  0  0
   -5.7760   46.0640  -23.8040 N   0  0  0  0  0  0  0  0  0  0  0  0
   -6.3410   46.3970  -23.0230 H   0  0  0  0  0  0  0  0  0  0  0  0
   -6.0580   46.4920  -25.0530 C   0  0  1  0  0  0  0  0  0  0  0  0
   -5.2600   46.0080  -26.0710 C   0  0  0  0  0  0  0  0  0  0  0  0
   -4.2220   45.1250  -25.8210 C   0  0  0  0  0  0  0  0  0  0  0  0
   -3.9800   44.7310  -24.5750 N   0  0  0  0  0  0  0  0  0  0  0  0
   -3.2190   44.0810  -24.3780 H   0  0  0  0  0  0  0  0  0  0  0  0
   -7.1430   47.4180  -25.3520 C   0  0  0  0  0  0  0  0  0  0  0  0
   -7.3050   48.6360  -24.6850 C   0  0  0  0  0  0  0  0  0  0  0  0
   -8.4020   49.2200  -25.2240 N   0  0  0  0  0  0  0  0  0  0  0  0
   -8.9050   48.4050  -26.1850 C   0  0  0  0  0  0  0  0  0  0  0  0
   -8.7870   50.1250  -24.9520 H   0  0  0  0  0  0  0  0  0  0  0  0
   -9.9800   48.4680  -27.0500 C   0  0  0  0  0  0  0  0  0  0  0  0
   -8.1350   47.3080  -26.2600 N   0  0  0  0  0  0  0  0  0  0  0  0
  -10.2670   47.4680  -27.9510 C   0  0  0  0  0  0  0  0  0  0  0  0
   -9.4500   46.3620  -27.9930 C   0  0  0  0  0  0  0  0  0  0  0  0
   -8.3820   46.3130  -27.1260 C   0  0  0  0  0  0  0  0  0  0  0  0
   -6.4340   49.1270  -23.6230 C   0  0  0  0  0  0  0  0  0  0  0  0
   -5.1160   49.3790  -23.8310 C   0  0  0  0  0  0  0  0  0  0  0  0
   -4.3100   49.8370  -22.8330 C   0  0  0  0  0  0  0  0  0  0  0  0
   -4.8540   50.0510  -21.5820 C   0  0  0  0  0  0  0  0  0  0  0  0
   -6.1970   49.8030  -21.3450 C   0  0  0  0  0  0  0  0  0  0  0  0
   -6.9860   49.3370  -22.3760 C   0  0  0  0  0  0  0  0  0  0  0  0
   -2.8730   50.1040  -23.0700 C   0  0  0  0  0  0  0  0  0  0  0  0
   -2.0290   49.3530  -22.5160 O   0  0  0  0  0  0  0  0  0  0  0  0
   -2.5070   51.1940  -23.9110 N   0  0  0  0  0  0  0  0  0  0  0  0
   -3.2570   51.7680  -24.2970 H   0  0  0  0  0  0  0  0  0  0  0  0
   -1.1810   51.5330  -24.2480 C   0  0  0  0  0  0  0  0  0  0  0  0
   -0.7530   51.1520  -25.5280 C   0  0  0  0  0  0  0  0  0  0  0  0
   -1.6040   50.4930  -26.3670 F   0  0  0  0  0  0  0  0  0  0  0  0
    0.5400   51.4540  -25.9290 C   0  0  0  0  0  0  0  0  0  0  0  0
    1.3900   52.1140  -25.0880 C   0  0  0  0  0  0  0  0  0  0  0  0
    0.9600   52.4830  -23.8320 C   0  0  0  0  0  0  0  0  0  0  0  0
   -0.3170   52.2030  -23.3970 C   0  0  0  0  0  0  0  0  0  0  0  0
   -0.7810   52.5420  -22.1830 F   0  0  0  0  0  0  0  0  0  0  0  0
   -4.4370   44.7330  -22.2630 N   0  0  0  0  0  0  0  0  0  0  0  0
   -4.2790   43.7350  -22.1240 H   0  0  0  0  0  0  0  0  0  0  0  0
   -4.3280   45.6060  -21.1450 C   0  0  0  0  0  0  0  0  0  0  0  0
   -5.3960   45.9090  -20.3200 C   0  0  0  0  0  0  0  0  0  0  0  0
   -5.1810   46.7580  -19.2680 C   0  0  0  0  0  0  0  0  0  0  0  0
   -3.9390   47.2970  -19.0320 C   0  0  0  0  0  0  0  0  0  0  0  0
   -2.8570   47.0130  -19.8370 C   0  0  0  0  0  0  0  0  0  0  0  0
   -3.0790   46.1570  -20.8940 C   0  0  0  0  0  0  0  0  0  0  0  0
   -6.6100   45.3270  -20.6250 O   0  0  0  0  0  0  0  0  0  0  0  0
   -7.7440   46.1740  -20.6780 C   0  0  0  0  0  0  0  0  0  0  0  0
   -3.7650   48.1760  -17.9190 N   0  0  0  0  0  0  0  0  0  0  0  0
   -3.9660   49.6090  -18.0110 C   0  0  0  0  0  0  0  0  0  0  0  0
   -3.3870   50.2460  -16.7720 C   0  0  0  0  0  0  0  0  0  0  0  0
   -2.0200   49.6970  -16.5330 C   0  0  1  0  0  0  0  0  0  0  0  0
   -1.9980   48.2020  -16.3200 C   0  0  0  0  0  0  0  0  0  0  0  0
   -3.3720   47.6530  -16.6240 C   0  0  0  0  0  0  0  0  0  0  0  0
   -1.0470   50.0940  -17.5170 N   0  0  0  0  0  0  0  0  0  0  0  0
   -0.0560   50.9280  -16.8780 C   0  0  0  0  0  0  0  0  0  0  0  0
    0.8640   51.4680  -17.9500 C   0  0  0  0  0  0  0  0  0  0  0  0
    0.0860   51.4910  -19.2500 C   0  0  0  0  0  0  0  0  0  0  0  0
    0.4200   50.2520  -20.0430 C   0  0  0  0  0  0  0  0  0  0  0  0
   -0.2790   49.0240  -19.5600 C   0  0  0  0  0  0  0  0  0  0  0  0
   -0.3950   48.9360  -18.0510 C   0  0  0  0  0  0  0  0  0  0  0  0
   -5.4411   46.3112  -27.0407 H   0  0  0  0  0  0  0  0  0  0  0  0
   -3.6399   44.7752  -26.5981 H   0  0  0  0  0  0  0  0  0  0  0  0
  -10.5924   49.2981  -27.0195 H   0  0  0  0  0  0  0  0  0  0  0  0
  -11.2554   47.1213  -27.7324 H   0  0  0  0  0  0  0  0  0  0  0  0
   -9.6325   45.5917  -28.6551 H   0  0  0  0  0  0  0  0  0  0  0  0
   -7.7568   45.4921  -27.1423 H   0  0  0  0  0  0  0  0  0  0  0  0
   -4.7150   49.2196  -24.7685 H   0  0  0  0  0  0  0  0  0  0  0  0
   -4.2553   50.3987  -20.8167 H   0  0  0  0  0  0  0  0  0  0  0  0
   -6.6013   49.9649  -20.4094 H   0  0  0  0  0  0  0  0  0  0  0  0
   -7.9873   49.1458  -22.2150 H   0  0  0  0  0  0  0  0  0  0  0  0
    0.8622   51.1780  -26.8698 H   0  0  0  0  0  0  0  0  0  0  0  0
    2.3509   52.3356  -25.3922 H   0  0  0  0  0  0  0  0  0  0  0  0
    1.6093   52.9805  -23.2027 H   0  0  0  0  0  0  0  0  0  0  0  0
   -5.9651   46.9975  -18.6412 H   0  0  0  0  0  0  0  0  0  0  0  0
   -1.9264   47.4212  -19.6571 H   0  0  0  0  0  0  0  0  0  0  0  0
   -2.2925   45.9183  -21.5180 H   0  0  0  0  0  0  0  0  0  0  0  0
   -8.6102   45.5955  -20.9228 H   0  0  0  0  0  0  0  0  0  0  0  0
   -7.5937   46.9249  -21.4253 H   0  0  0  0  0  0  0  0  0  0  0  0
   -7.8848   46.6415  -19.7259 H   0  0  0  0  0  0  0  0  0  0  0  0
   -5.0121   49.8248  -18.0743 H   0  0  0  0  0  0  0  0  0  0  0  0
   -3.4840   49.9948  -18.8850 H   0  0  0  0  0  0  0  0  0  0  0  0
   -4.0124   50.0281  -15.9316 H   0  0  0  0  0  0  0  0  0  0  0  0
   -3.3312   51.3063  -16.9047 H   0  0  0  0  0  0  0  0  0  0  0  0
   -1.7239   50.1515  -15.6107 H   0  0  0  0  0  0  0  0  0  0  0  0
   -1.2783   47.7551  -16.9736 H   0  0  0  0  0  0  0  0  0  0  0  0
   -1.7309   47.9803  -15.3079 H   0  0  0  0  0  0  0  0  0  0  0  0
   -3.3414   46.5839  -16.6542 H   0  0  0  0  0  0  0  0  0  0  0  0
   -4.0726   47.9420  -15.8687 H   0  0  0  0  0  0  0  0  0  0  0  0
   -0.5364   51.7381  -16.3702 H   0  0  0  0  0  0  0  0  0  0  0  0
    0.5011   50.3603  -16.1623 H   0  0  0  0  0  0  0  0  0  0  0  0
    1.1794   52.4583  -17.6956 H   0  0  0  0  0  0  0  0  0  0  0  0
    1.7349   50.8534  -18.0433 H   0  0  0  0  0  0  0  0  0  0  0  0
   -0.9630   51.5109  -19.0402 H   0  0  0  0  0  0  0  0  0  0  0  0
    0.3476   52.3625  -19.8130 H   0  0  0  0  0  0  0  0  0  0  0  0
    0.1435   50.4190  -21.0631 H   0  0  0  0  0  0  0  0  0  0  0  0
    1.4698   50.0802  -19.9276 H   0  0  0  0  0  0  0  0  0  0  0  0
    0.2635   48.1693  -19.9065 H   0  0  0  0  0  0  0  0  0  0  0  0
   -1.2761   49.0622  -19.9462 H   0  0  0  0  0  0  0  0  0  0  0  0
    0.5852   48.8606  -17.6287 H   0  0  0  0  0  0  0  0  0  0  0  0
   -0.9775   48.0731  -17.8040 H   0  0  0  0  0  0  0  0  0  0  0  0
  1 37  1  1  0  0  0
  2  1  1  0  0  0  0
  2  3  1  0  0  0  0
  4  9  1  6  0  0  0
  4  2  1  0  0  0  0
  5  6  2  0  0  0  0
  5  4  1  0  0  0  0
  5 60  1  0  0  0  0
  6  7  1  0  0  0  0
  6 61  1  0  0  0  0
  7  8  1  0  0  0  0
  7  1  1  0  0  0  0
  9 10  2  0  0  0  0
 10 19  1  0  0  0  0
 11 13  1  0  0  0  0
 11 10  1  0  0  0  0
 12 11  1  0  0  0  0
 14 12  2  0  0  0  0
 14 62  1  0  0  0  0
 15 12  1  0  0  0  0
 15  9  1  0  0  0  0
 16 14  1  0  0  0  0
 16 63  1  0  0  0  0
 17 16  1  0  0  0  0
 17 18  2  0  0  0  0
 17 64  1  0  0  0  0
 18 15  1  0  0  0  0
 18 65  1  0  0  0  0
 19 24  1  0  0  0  0
 20 19  2  0  0  0  0
 20 21  1  0  0  0  0
 20 66  1  0  0  0  0
 21 22  2  0  0  0  0
 22 23  1  0  0  0  0
 22 67  1  0  0  0  0
 23 68  1  0  0  0  0
 24 23  2  0  0  0  0
 24 69  1  0  0  0  0
 25 21  1  0  0  0  0
 25 26  2  0  0  0  0
 27 25  1  0  0  0  0
 28 27  1  0  0  0  0
 29 27  1  0  0  0  0
 29 35  2  0  0  0  0
 30 29  1  0  0  0  0
 31 30  1  0  0  0  0
 32 30  2  0  0  0  0
 32 33  1  0  0  0  0
 32 70  1  0  0  0  0
 33 34  2  0  0  0  0
 33 71  1  0  0  0  0
 34 35  1  0  0  0  0
 34 72  1  0  0  0  0
 35 36  1  0  0  0  0
 37 38  1  0  0  0  0
 37 39  1  0  0  0  0
 39 44  2  0  0  0  0
 39 40  1  0  0  0  0
 40 41  2  0  0  0  0
 41 42  1  0  0  0  0
 41 73  1  0  0  0  0
 42 47  1  0  0  0  0
 43 42  2  0  0  0  0
 43 74  1  0  0  0  0
 44 43  1  0  0  0  0
 44 75  1  0  0  0  0
 45 40  1  0  0  0  0
 46 45  1  0  0  0  0
 46 76  1  0  0  0  0
 46 77  1  0  0  0  0
 46 78  1  0  0  0  0
 47 52  1  0  0  0  0
 48 47  1  0  0  0  0
 48 49  1  0  0  0  0
 48 79  1  0  0  0  0
 48 80  1  0  0  0  0
 49 50  1  0  0  0  0
 49 81  1  0  0  0  0
 49 82  1  0  0  0  0
 50 51  1  0  0  0  0
 50 83  1  1  0  0  0
 51 84  1  0  0  0  0
 51 85  1  0  0  0  0
 52 51  1  0  0  0  0
 52 86  1  0  0  0  0
 52 87  1  0  0  0  0
 53 54  1  0  0  0  0
 53 50  1  0  0  0  0
 54 88  1  0  0  0  0
 54 89  1  0  0  0  0
 55 54  1  0  0  0  0
 55 90  1  0  0  0  0
 55 91  1  0  0  0  0
 56 55  1  0  0  0  0
 56 92  1  0  0  0  0
 56 93  1  0  0  0  0
 57 58  1  0  0  0  0
 57 56  1  0  0  0  0
 57 94  1  0  0  0  0
 57 95  1  0  0  0  0
 58 59  1  0  0  0  0
 58 96  1  0  0  0  0
 58 97  1  0  0  0  0
 59 53  1  0  0  0  0
 59 98  1  0  0  0  0
 59 99  1  0  0  0  0
M  END
>  <REMARK>
 VINA RESULT:     -10.0      2.719      8.931
  9 active torsions:
  status: ('A' for Active; 'I' for Inactive)
    1  A    between atoms: O_2  and  C_3 
    2  A    between atoms: C_4  and  N_5 
    3  A    between atoms: N_5  and  C_7 
    4  A    between atoms: C_10  and  C_11 
    5  A    between atoms: C_12  and  C_13 
    6  A    between atoms: C_15  and  C_16 
       I    between atoms: C_16  and  N_18 
    7  A    between atoms: N_18  and  C_20 
    8  A    between atoms: C_45  and  N_46 
    9  A    between atoms: C_49  and  N_50 

>  <TORSDO>
F 9

$$$$
resistance_project/docking/8faf60323ce63d5a/P00533_WT/docked/molecule_0007_out.pdbqt
 OpenBabel09142609543D

 99106  0  0  1  0  0  0  0  0999 V2000
   -7.5700   48.5440  -23.1820 C   0  0  1  0  0  0  0  0  0  0  0  0
   -7.3110   48.6180  -24.5100 N   0  0  0  0  0  0  0  0  0  0  0  0
   -6.8910   49.4670  -24.8900 H   0  0  0  0  0  0  0  0  0  0  0  0
   -7.5980   47.5930  -25.3400 C   0  0  1  0  0  0  0  0  0  0  0  0
   -8.1650   46.4710  -24.7680 C   0  0  0  0  0  0  0  0  0  0  0  0
   -8.4270   46.4030  -23.4100 C   0  0  0  0  0  0  0  0  0  0  0  0
   -8.1280   47.4360  -22.6300 N   0  0  0  0  0  0  0  0  0  0  0  0
   -8.3170   47.3980  -21.6280 H   0  0  0  0  0  0  0  0  0  0  0  0
   -7.3370   47.6320  -26.7740 C   0  0  0  0  0  0  0  0  0  0  0  0
   -6.0520   47.5280  -27.3120 C   0  0  0  0  0  0  0  0  0  0  0  0
   -6.1980   47.6010  -28.6570 N   0  0  0  0  0  0  0  0  0  0  0  0
   -7.5150   47.7440  -28.9480 C   0  0  0  0  0  0  0  0  0  0  0  0
   -5.4410   47.5550  -29.3400 H   0  0  0  0  0  0  0  0  0  0  0  0
   -8.2470   47.8660  -30.1120 C   0  0  0  0  0  0  0  0  0  0  0  0
   -8.2060   47.7630  -27.7970 N   0  0  0  0  0  0  0  0  0  0  0  0
   -9.6170   48.0020  -30.1180 C   0  0  0  0  0  0  0  0  0  0  0  0
  -10.2840   48.0160  -28.9140 C   0  0  0  0  0  0  0  0  0  0  0  0
   -9.5420   47.8920  -27.7620 C   0  0  0  0  0  0  0  0  0  0  0  0
   -4.8290   47.3750  -26.5310 C   0  0  0  0  0  0  0  0  0  0  0  0
   -4.1010   48.4450  -26.1170 C   0  0  0  0  0  0  0  0  0  0  0  0
   -2.9600   48.2930  -25.3890 C   0  0  0  0  0  0  0  0  0  0  0  0
   -2.5400   47.0180  -25.0650 C   0  0  0  0  0  0  0  0  0  0  0  0
   -3.2660   45.9110  -25.4760 C   0  0  0  0  0  0  0  0  0  0  0  0
   -4.4160   46.0970  -26.2140 C   0  0  0  0  0  0  0  0  0  0  0  0
   -2.1720   49.4650  -24.9460 C   0  0  0  0  0  0  0  0  0  0  0  0
   -2.0550   49.6710  -23.7100 O   0  0  0  0  0  0  0  0  0  0  0  0
   -1.5820   50.3080  -25.9320 N   0  0  0  0  0  0  0  0  0  0  0  0
   -1.7520   50.0810  -26.9130 H   0  0  0  0  0  0  0  0  0  0  0  0
   -0.7800   51.4310  -25.6470 C   0  0  0  0  0  0  0  0  0  0  0  0
   -1.4630   52.6370  -25.4340 C   0  0  0  0  0  0  0  0  0  0  0  0
   -2.8250   52.6760  -25.5070 F   0  0  0  0  0  0  0  0  0  0  0  0
   -0.7390   53.7850  -25.1470 C   0  0  0  0  0  0  0  0  0  0  0  0
    0.6240   53.7440  -25.0730 C   0  0  0  0  0  0  0  0  0  0  0  0
    1.2860   52.5540  -25.2860 C   0  0  0  0  0  0  0  0  0  0  0  0
    0.6030   51.3920  -25.5720 C   0  0  0  0  0  0  0  0  0  0  0  0
    1.2020   50.2090  -25.7870 F   0  0  0  0  0  0  0  0  0  0  0  0
   -7.2790   49.6070  -22.2820 N   0  0  0  0  0  0  0  0  0  0  0  0
   -7.8990   50.4170  -22.2610 H   0  0  0  0  0  0  0  0  0  0  0  0
   -6.1550   49.5810  -21.4100 C   0  0  0  0  0  0  0  0  0  0  0  0
   -4.9390   50.1560  -21.7330 C   0  0  0  0  0  0  0  0  0  0  0  0
   -3.9220   50.0780  -20.8190 C   0  0  0  0  0  0  0  0  0  0  0  0
   -4.1000   49.4480  -19.6110 C   0  0  0  0  0  0  0  0  0  0  0  0
   -5.3000   48.8660  -19.2630 C   0  0  0  0  0  0  0  0  0  0  0  0
   -6.3200   48.9480  -20.1860 C   0  0  0  0  0  0  0  0  0  0  0  0
   -4.8420   50.7700  -22.9660 O   0  0  0  0  0  0  0  0  0  0  0  0
   -4.6590   52.1740  -22.9820 C   0  0  0  0  0  0  0  0  0  0  0  0
   -3.0100   49.3950  -18.6900 N   0  0  0  0  0  0  0  0  0  0  0  0
   -2.6910   50.4850  -17.7870 C   0  0  0  0  0  0  0  0  0  0  0  0
   -1.3200   50.2330  -17.2110 C   0  0  0  0  0  0  0  0  0  0  0  0
   -0.3820   49.8800  -18.3170 C   0  0  1  0  0  0  0  0  0  0  0  0
   -0.7840   48.6380  -19.0760 C   0  0  0  0  0  0  0  0  0  0  0  0
   -2.1630   48.2200  -18.6200 C   0  0  0  0  0  0  0  0  0  0  0  0
   -0.0980   50.9670  -19.2160 N   0  0  0  0  0  0  0  0  0  0  0  0
    0.9200   51.8030  -18.6260 C   0  0  0  0  0  0  0  0  0  0  0  0
    1.0910   53.0240  -19.5020 C   0  0  0  0  0  0  0  0  0  0  0  0
   -0.2140   53.2430  -20.2390 C   0  0  0  0  0  0  0  0  0  0  0  0
   -0.1060   52.6390  -21.6180 C   0  0  0  0  0  0  0  0  0  0  0  0
   -0.2590   51.1530  -21.6350 C   0  0  0  0  0  0  0  0  0  0  0  0
    0.3950   50.4540  -20.4590 C   0  0  0  0  0  0  0  0  0  0  0  0
   -8.3990   45.6639  -25.3671 H   0  0  0  0  0  0  0  0  0  0  0  0
   -8.8524   45.5541  -23.0058 H   0  0  0  0  0  0  0  0  0  0  0  0
   -7.7468   47.8548  -31.0146 H   0  0  0  0  0  0  0  0  0  0  0  0
  -10.0121   47.1871  -30.6878 H   0  0  0  0  0  0  0  0  0  0  0  0
  -11.3104   48.1165  -28.8765 H   0  0  0  0  0  0  0  0  0  0  0  0
  -10.0238   47.8983  -26.8494 H   0  0  0  0  0  0  0  0  0  0  0  0
   -4.4203   49.3958  -26.3600 H   0  0  0  0  0  0  0  0  0  0  0  0
   -1.6783   46.8882  -24.5122 H   0  0  0  0  0  0  0  0  0  0  0  0
   -2.9498   44.9593  -25.2327 H   0  0  0  0  0  0  0  0  0  0  0  0
   -4.9663   45.2826  -26.5284 H   0  0  0  0  0  0  0  0  0  0  0  0
   -1.2340   54.6765  -24.9883 H   0  0  0  0  0  0  0  0  0  0  0  0
    1.1567   54.6014  -24.8583 H   0  0  0  0  0  0  0  0  0  0  0  0
    2.3163   52.5328  -25.2300 H   0  0  0  0  0  0  0  0  0  0  0  0
   -3.0066   50.4995  -21.0413 H   0  0  0  0  0  0  0  0  0  0  0  0
   -5.4284   48.3919  -18.3554 H   0  0  0  0  0  0  0  0  0  0  0  0
   -7.2343   48.5259  -19.9602 H   0  0  0  0  0  0  0  0  0  0  0  0
   -4.6006   52.5146  -23.9947 H   0  0  0  0  0  0  0  0  0  0  0  0
   -3.7528   52.4214  -22.4697 H   0  0  0  0  0  0  0  0  0  0  0  0
   -5.4853   52.6470  -22.4937 H   0  0  0  0  0  0  0  0  0  0  0  0
   -3.4133   50.5256  -16.9987 H   0  0  0  0  0  0  0  0  0  0  0  0
   -2.7059   51.4170  -18.3124 H   0  0  0  0  0  0  0  0  0  0  0  0
   -0.9725   51.1148  -16.7144 H   0  0  0  0  0  0  0  0  0  0  0  0
   -1.3672   49.4277  -16.5080 H   0  0  0  0  0  0  0  0  0  0  0  0
    0.5335   49.6575  -17.8097 H   0  0  0  0  0  0  0  0  0  0  0  0
   -0.7989   48.8458  -20.1255 H   0  0  0  0  0  0  0  0  0  0  0  0
   -0.0828   47.8518  -18.8885 H   0  0  0  0  0  0  0  0  0  0  0  0
   -2.1225   47.8562  -17.6146 H   0  0  0  0  0  0  0  0  0  0  0  0
   -2.5473   47.4363  -19.2388 H   0  0  0  0  0  0  0  0  0  0  0  0
    0.6199   52.1009  -17.6431 H   0  0  0  0  0  0  0  0  0  0  0  0
    1.8432   51.2671  -18.5526 H   0  0  0  0  0  0  0  0  0  0  0  0
    1.3171   53.8779  -18.8982 H   0  0  0  0  0  0  0  0  0  0  0  0
    1.8948   52.8815  -20.1938 H   0  0  0  0  0  0  0  0  0  0  0  0
   -1.0121   52.7733  -19.7030 H   0  0  0  0  0  0  0  0  0  0  0  0
   -0.4136   54.2913  -20.3178 H   0  0  0  0  0  0  0  0  0  0  0  0
   -0.8702   53.0646  -22.2343 H   0  0  0  0  0  0  0  0  0  0  0  0
    0.8773   52.8568  -21.9793 H   0  0  0  0  0  0  0  0  0  0  0  0
    0.1809   50.7794  -22.5360 H   0  0  0  0  0  0  0  0  0  0  0  0
   -1.3074   50.9482  -21.5738 H   0  0  0  0  0  0  0  0  0  0  0  0
    1.4529   50.6073  -20.5055 H   0  0  0  0  0  0  0  0  0  0  0  0
    0.1638   49.4106  -20.5120 H   0  0  0  0  0  0  0  0  0  0  0  0
  1  7  1  0  0  0  0
  1 37  1  1  0  0  0
  2  1  1  0  0  0  0
  3  2  1  0  0  0  0
  4  9  1  6  0  0  0
  4  5  1  0  0  0  0
  4  2  1  0  0  0  0
  5  6  2  0  0  0  0
  5 60  1  0  0  0  0
  6  7  1  0  0  0  0
  6 61  1  0  0  0  0
  7  8  1  0  0  0  0
 10  9  2  0  0  0  0
 10 19  1  0  0  0  0
 11 10  1  0  0  0  0
 12 11  1  0  0  0  0
 12 15  1  0  0  0  0
 13 11  1  0  0  0  0
 14 12  2  0  0  0  0
 14 62  1  0  0  0  0
 15 18  1  0  0  0  0
 15  9  1  0  0  0  0
 16 14  1  0  0  0  0
 16 17  1  0  0  0  0
 16 63  1  0  0  0  0
 17 18  2  0  0  0  0
 17 64  1  0  0  0  0
 18 65  1  0  0  0  0
 19 24  2  0  0  0  0
 19 20  1  0  0  0  0
 20 21  2  0  0  0  0
 20 66  1  0  0  0  0
 21 22  1  0  0  0  0
 21 25  1  0  0  0  0
 22 67  1  0  0  0  0
 23 22  2  0  0  0  0
 23 68  1  0  0  0  0
 24 23  1  0  0  0  0
 24 69  1  0  0  0  0
 25 26  2  0  0  0  0
 27 29  1  0  0  0  0
 27 25  1  0  0  0  0
 28 27  1  0  0  0  0
 29 35  2  0  0  0  0
 29 30  1  0  0  0  0
 30 32  2  0  0  0  0
 31 30  1  0  0  0  0
 32 33  1  0  0  0  0
 32 70  1  0  0  0  0
 33 71  1  0  0  0  0
 34 33  2  0  0  0  0
 34 72  1  0  0  0  0
 35 34  1  0  0  0  0
 36 35  1  0  0  0  0
 37 38  1  0  0  0  0
 37 39  1  0  0  0  0
 39 44  1  0  0  0  0
 40 39  2  0  0  0  0
 40 41  1  0  0  0  0
 41 42  2  0  0  0  0
 41 73  1  0  0  0  0
 42 43  1  0  0  0  0
 42 47  1  0  0  0  0
 43 74  1  0  0  0  0
 44 43  2  0  0  0  0
 44 75  1  0  0  0  0
 45 40  1  0  0  0  0
 46 45  1  0  0  0  0
 46 76  1  0  0  0  0
 46 77  1  0  0  0  0
 46 78  1  0  0  0  0
 47 52  1  0  0  0  0
 47 48  1  0  0  0  0
 48 49  1  0  0  0  0
 48 79  1  0  0  0  0
 48 80  1  0  0  0  0
 49 81  1  0  0  0  0
 49 82  1  0  0  0  0
 50 49  1  0  0  0  0
 50 83  1  1  0  0  0
 51 52  1  0  0  0  0
 51 50  1  0  0  0  0
 51 84  1  0  0  0  0
 51 85  1  0  0  0  0
 52 86  1  0  0  0  0
 52 87  1  0  0  0  0
 53 54  1  0  0  0  0
 53 50  1  0  0  0  0
 54 88  1  0  0  0  0
 54 89  1  0  0  0  0
 55 54  1  0  0  0  0
 55 90  1  0  0  0  0
 55 91  1  0  0  0  0
 56 55  1  0  0  0  0
 56 92  1  0  0  0  0
 56 93  1  0  0  0  0
 57 56  1  0  0  0  0
 57 94  1  0  0  0  0
 57 95  1  0  0  0  0
 58 57  1  0  0  0  0
 58 59  1  0  0  0  0
 58 96  1  0  0  0  0
 58 97  1  0  0  0  0
 59 53  1  0  0  0  0
 59 98  1  0  0  0  0
 59 99  1  0  0  0  0
M  END
>  <REMARK>
 VINA RESULT:      -9.9      3.183      9.409
  9 active torsions:
  status: ('A' for Active; 'I' for Inactive)
    1  A    between atoms: O_2  and  C_3 
    2  A    between atoms: C_4  and  N_5 
    3  A    between atoms: N_5  and  C_7 
    4  A    between atoms: C_10  and  C_11 
    5  A    between atoms: C_12  and  C_13 
    6  A    between atoms: C_15  and  C_16 
       I    between atoms: C_16  and  N_18 
    7  A    between atoms: N_18  and  C_20 
    8  A    between atoms: C_45  and  N_46 
    9  A    between atoms: C_49  and  N_50 

>  <TORSDO>
F 9

$$$$
resistance_project/docking/8faf60323ce63d5a/P00533_WT/docked/molecule_0007_out.pdbqt
 OpenBabel09142609543D

 99106  0  0  1  0  0  0  0  0999 V2000
   -2.6650   50.0180  -19.0090 C   0  0  1  0  0  0  0  0  0  0  0  0
   -1.7390   50.7500  -18.3430 N   0  0  0  0  0  0  0  0  0  0  0  0
   -1.9830   51.6850  -18.0170 H   0  0  0  0  0  0  0  0  0  0  0  0
   -0.5010   50.2670  -18.1050 C   0  0  2  0  0  0  0  0  0  0  0  0
   -0.2300   48.9960  -18.5700 C   0  0  0  0  0  0  0  0  0  0  0  0
   -1.1810   48.2540  -19.2500 C   0  0  0  0  0  0  0  0  0  0  0  0
   -2.3870   48.7690  -19.4630 N   0  0  0  0  0  0  0  0  0  0  0  0
   -3.0960   48.2330  -19.9630 H   0  0  0  0  0  0  0  0  0  0  0  0
    0.5240   51.0210  -17.3940 C   0  0  0  0  0  0  0  0  0  0  0  0
    1.3060   52.0020  -18.0100 C   0  0  0  0  0  0  0  0  0  0  0  0
    2.1360   52.4810  -17.0520 N   0  0  0  0  0  0  0  0  0  0  0  0
    1.8860   51.8300  -15.8890 C   0  0  0  0  0  0  0  0  0  0  0  0
    2.8350   53.2130  -17.1840 H   0  0  0  0  0  0  0  0  0  0  0  0
    2.4010   51.8890  -14.6090 C   0  0  0  0  0  0  0  0  0  0  0  0
    0.9030   50.9400  -16.1020 N   0  0  0  0  0  0  0  0  0  0  0  0
    1.9470   51.0860  -13.5870 C   0  0  0  0  0  0  0  0  0  0  0  0
    0.9380   50.1890  -13.8510 C   0  0  0  0  0  0  0  0  0  0  0  0
    0.4320   50.1410  -15.1310 C   0  0  0  0  0  0  0  0  0  0  0  0
    1.2060   52.3900  -19.4120 C   0  0  0  0  0  0  0  0  0  0  0  0
    0.3450   51.7820  -20.2680 C   0  0  0  0  0  0  0  0  0  0  0  0
    0.2590   52.1500  -21.5770 C   0  0  0  0  0  0  0  0  0  0  0  0
    1.0690   53.1690  -22.0370 C   0  0  0  0  0  0  0  0  0  0  0  0
    1.9570   53.8060  -21.1840 C   0  0  0  0  0  0  0  0  0  0  0  0
    2.0210   53.4090  -19.8640 C   0  0  0  0  0  0  0  0  0  0  0  0
   -0.6800   51.4780  -22.5020 C   0  0  0  0  0  0  0  0  0  0  0  0
   -1.1530   50.3620  -22.1630 O   0  0  0  0  0  0  0  0  0  0  0  0
   -1.0090   52.1180  -23.7320 N   0  0  0  0  0  0  0  0  0  0  0  0
   -0.5570   53.0090  -23.9380 H   0  0  0  0  0  0  0  0  0  0  0  0
   -1.9150   51.6060  -24.6820 C   0  0  0  0  0  0  0  0  0  0  0  0
   -3.2640   51.9360  -24.4870 C   0  0  0  0  0  0  0  0  0  0  0  0
   -3.6340   52.7100  -23.4270 F   0  0  0  0  0  0  0  0  0  0  0  0
   -4.2130   51.4670  -25.3850 C   0  0  0  0  0  0  0  0  0  0  0  0
   -3.8410   50.6930  -26.4460 C   0  0  0  0  0  0  0  0  0  0  0  0
   -2.5130   50.3740  -26.6280 C   0  0  0  0  0  0  0  0  0  0  0  0
   -1.5400   50.8200  -25.7600 C   0  0  0  0  0  0  0  0  0  0  0  0
   -0.2340   50.5350  -25.8950 F   0  0  0  0  0  0  0  0  0  0  0  0
   -3.9770   50.4990  -19.2760 N   0  0  0  0  0  0  0  0  0  0  0  0
   -4.2990   51.3400  -18.7980 H   0  0  0  0  0  0  0  0  0  0  0  0
   -4.8560   49.8490  -20.1860 C   0  0  0  0  0  0  0  0  0  0  0  0
   -5.6830   48.8030  -19.8170 C   0  0  0  0  0  0  0  0  0  0  0  0
   -6.4940   48.2510  -20.7720 C   0  0  0  0  0  0  0  0  0  0  0  0
   -6.4930   48.7200  -22.0640 C   0  0  0  0  0  0  0  0  0  0  0  0
   -5.6810   49.7600  -22.4600 C   0  0  0  0  0  0  0  0  0  0  0  0
   -4.8660   50.3130  -21.4950 C   0  0  0  0  0  0  0  0  0  0  0  0
   -5.6240   48.3910  -18.5010 O   0  0  0  0  0  0  0  0  0  0  0  0
   -5.3650   47.0200  -18.2590 C   0  0  0  0  0  0  0  0  0  0  0  0
   -7.3600   48.1130  -23.0230 N   0  0  0  0  0  0  0  0  0  0  0  0
   -7.6300   46.6880  -23.0460 C   0  0  0  0  0  0  0  0  0  0  0  0
   -8.3020   46.3580  -24.3560 C   0  0  0  0  0  0  0  0  0  0  0  0
   -7.5390   46.9920  -25.4700 C   0  0  1  0  0  0  0  0  0  0  0  0
   -7.4650   48.4980  -25.3720 C   0  0  0  0  0  0  0  0  0  0  0  0
   -8.0200   48.9200  -24.0310 C   0  0  0  0  0  0  0  0  0  0  0  0
   -6.2350   46.4240  -25.6890 N   0  0  0  0  0  0  0  0  0  0  0  0
   -6.2930   45.5650  -26.8480 C   0  0  0  0  0  0  0  0  0  0  0  0
   -4.9650   44.8510  -26.9690 C   0  0  0  0  0  0  0  0  0  0  0  0
   -4.3560   44.7820  -25.5830 C   0  0  0  0  0  0  0  0  0  0  0  0
   -3.3670   45.9110  -25.4260 C   0  0  0  0  0  0  0  0  0  0  0  0
   -4.0050   47.2350  -25.1610 C   0  0  0  0  0  0  0  0  0  0  0  0
   -5.2860   47.4660  -25.9390 C   0  0  0  0  0  0  0  0  0  0  0  0
    0.7041   48.5888  -18.4069 H   0  0  0  0  0  0  0  0  0  0  0  0
   -0.9542   47.3062  -19.5895 H   0  0  0  0  0  0  0  0  0  0  0  0
    3.1572   52.5626  -14.4104 H   0  0  0  0  0  0  0  0  0  0  0  0
    1.5981   51.7328  -12.8093 H   0  0  0  0  0  0  0  0  0  0  0  0
    0.5709   49.5700  -13.1114 H   0  0  0  0  0  0  0  0  0  0  0  0
   -0.3264   49.4758  -15.3488 H   0  0  0  0  0  0  0  0  0  0  0  0
   -0.2594   51.0221  -19.9183 H   0  0  0  0  0  0  0  0  0  0  0  0
    1.0129   53.4594  -23.0257 H   0  0  0  0  0  0  0  0  0  0  0  0
    2.5618   54.5666  -21.5314 H   0  0  0  0  0  0  0  0  0  0  0  0
    2.6767   53.8727  -19.2159 H   0  0  0  0  0  0  0  0  0  0  0  0
   -5.2079   51.7055  -25.2493 H   0  0  0  0  0  0  0  0  0  0  0  0
   -4.5520   50.3479  -27.1096 H   0  0  0  0  0  0  0  0  0  0  0  0
   -2.2408   49.7878  -27.4326 H   0  0  0  0  0  0  0  0  0  0  0  0
   -7.1172   47.4688  -20.5173 H   0  0  0  0  0  0  0  0  0  0  0  0
   -5.6826   50.1082  -23.4315 H   0  0  0  0  0  0  0  0  0  0  0  0
   -4.2446   51.0954  -21.7533 H   0  0  0  0  0  0  0  0  0  0  0  0
   -5.3467   46.8412  -17.2042 H   0  0  0  0  0  0  0  0  0  0  0  0
   -4.4183   46.7558  -18.6820 H   0  0  0  0  0  0  0  0  0  0  0  0
   -6.1342   46.4270  -18.7080 H   0  0  0  0  0  0  0  0  0  0  0  0
   -6.7125   46.1439  -22.9621 H   0  0  0  0  0  0  0  0  0  0  0  0
   -8.2632   46.4179  -22.2268 H   0  0  0  0  0  0  0  0  0  0  0  0
   -8.3195   45.2969  -24.4923 H   0  0  0  0  0  0  0  0  0  0  0  0
   -9.3055   46.7293  -24.3497 H   0  0  0  0  0  0  0  0  0  0  0  0
   -8.1219   46.7594  -26.3366 H   0  0  0  0  0  0  0  0  0  0  0  0
   -8.0430   48.9395  -26.1568 H   0  0  0  0  0  0  0  0  0  0  0  0
   -6.4495   48.8217  -25.4664 H   0  0  0  0  0  0  0  0  0  0  0  0
   -9.0763   48.7521  -24.0017 H   0  0  0  0  0  0  0  0  0  0  0  0
   -7.8470   49.9617  -23.8581 H   0  0  0  0  0  0  0  0  0  0  0  0
   -7.0802   44.8498  -26.7306 H   0  0  0  0  0  0  0  0  0  0  0  0
   -6.4859   46.1418  -27.7283 H   0  0  0  0  0  0  0  0  0  0  0  0
   -4.3174   45.3932  -27.6259 H   0  0  0  0  0  0  0  0  0  0  0  0
   -5.1010   43.8683  -27.3698 H   0  0  0  0  0  0  0  0  0  0  0  0
   -3.8544   43.8452  -25.4575 H   0  0  0  0  0  0  0  0  0  0  0  0
   -5.1254   44.8692  -24.8446 H   0  0  0  0  0  0  0  0  0  0  0  0
   -2.7943   45.9862  -26.3267 H   0  0  0  0  0  0  0  0  0  0  0  0
   -2.7609   45.6799  -24.5751 H   0  0  0  0  0  0  0  0  0  0  0  0
   -4.2290   47.2981  -24.1166 H   0  0  0  0  0  0  0  0  0  0  0  0
   -3.3096   47.9840  -25.4778 H   0  0  0  0  0  0  0  0  0  0  0  0
   -5.7100   48.4031  -25.6441 H   0  0  0  0  0  0  0  0  0  0  0  0
   -5.0535   47.4709  -26.9834 H   0  0  0  0  0  0  0  0  0  0  0  0
  1 37  1  1  0  0  0
  1  2  1  0  0  0  0
  2  4  1  0  0  0  0
  2  3  1  0  0  0  0
  4  9  1  1  0  0  0
  5  4  1  0  0  0  0
  5 60  1  0  0  0  0
  6  5  2  0  0  0  0
  6 61  1  0  0  0  0
  7  6  1  0  0  0  0
  7  1  1  0  0  0  0
  8  7  1  0  0  0  0
  9 15  1  0  0  0  0
 10  9  2  0  0  0  0
 10 11  1  0  0  0  0
 11 12  1  0  0  0  0
 12 14  2  0  0  0  0
 13 11  1  0  0  0  0
 14 16  1  0  0  0  0
 14 62  1  0  0  0  0
 15 12  1  0  0  0  0
 15 18  1  0  0  0  0
 16 63  1  0  0  0  0
 17 16  1  0  0  0  0
 17 64  1  0  0  0  0
 18 17  2  0  0  0  0
 18 65  1  0  0  0  0
 19 10  1  0  0  0  0
 20 19  2  0  0  0  0
 20 66  1  0  0  0  0
 21 20  1  0  0  0  0
 22 21  2  0  0  0  0
 22 23  1  0  0  0  0
 22 67  1  0  0  0  0
 23 24  2  0  0  0  0
 23 68  1  0  0  0  0
 24 19  1  0  0  0  0
 24 69  1  0  0  0  0
 25 26  2  0  0  0  0
 25 21  1  0  0  0  0
 27 25  1  0  0  0  0
 28 27  1  0  0  0  0
 29 30  1  0  0  0  0
 29 27  1  0  0  0  0
 30 31  1  0  0  0  0
 32 30  2  0  0  0  0
 32 70  1  0  0  0  0
 33 32  1  0  0  0  0
 33 71  1  0  0  0  0
 34 33  2  0  0  0  0
 34 35  1  0  0  0  0
 34 72  1  0  0  0  0
 35 29  2  0  0  0  0
 36 35  1  0  0  0  0
 37 38  1  0  0  0  0
 39 40  1  0  0  0  0
 39 37  1  0  0  0  0
 40 45  1  0  0  0  0
 41 40  2  0  0  0  0
 41 73  1  0  0  0  0
 42 41  1  0  0  0  0
 43 42  2  0  0  0  0
 43 44  1  0  0  0  0
 43 74  1  0  0  0  0
 44 39  2  0  0  0  0
 44 75  1  0  0  0  0
 45 46  1  0  0  0  0
 46 76  1  0  0  0  0
 46 77  1  0  0  0  0
 46 78  1  0  0  0  0
 47 42  1  0  0  0  0
 48 47  1  0  0  0  0
 48 79  1  0  0  0  0
 48 80  1  0  0  0  0
 49 48  1  0  0  0  0
 49 81  1  0  0  0  0
 49 82  1  0  0  0  0
 50 51  1  0  0  0  0
 50 49  1  0  0  0  0
 50 83  1  6  0  0  0
 51 52  1  0  0  0  0
 51 84  1  0  0  0  0
 51 85  1  0  0  0  0
 52 47  1  0  0  0  0
 52 86  1  0  0  0  0
 52 87  1  0  0  0  0
 53 50  1  0  0  0  0
 54 53  1  0  0  0  0
 54 88  1  0  0  0  0
 54 89  1  0  0  0  0
 55 54  1  0  0  0  0
 55 56  1  0  0  0  0
 55 90  1  0  0  0  0
 55 91  1  0  0  0  0
 56 57  1  0  0  0  0
 56 92  1  0  0  0  0
 56 93  1  0  0  0  0
 57 58  1  0  0  0  0
 57 94  1  0  0  0  0
 57 95  1  0  0  0  0
 58 96  1  0  0  0  0
 58 97  1  0  0  0  0
 59 53  1  0  0  0  0
 59 58  1  0  0  0  0
 59 98  1  0  0  0  0
 59 99  1  0  0  0  0
M  END
>  <REMARK>
 VINA RESULT:      -9.9      2.343      3.735
  9 active torsions:
  status: ('A' for Active; 'I' for Inactive)
    1  A    between atoms: O_2  and  C_3 
    2  A    between atoms: C_4  and  N_5 
    3  A    between atoms: N_5  and  C_7 
    4  A    between atoms: C_10  and  C_11 
    5  A    between atoms: C_12  and  C_13 
    6  A    between atoms: C_15  and  C_16 
       I    between atoms: C_16  and  N_18 
    7  A    between atoms: N_18  and  C_20 
    8  A    between atoms: C_45  and  N_46 
    9  A    between atoms: C_49  and  N_50 

>  <TORSDO>
F 9

$$$$
resistance_project/docking/8faf60323ce63d5a/P00533_WT/docked/molecule_0007_out.pdbqt
 OpenBabel09142609543D

 99106  0  0  1  0  0  0  0  0999 V2000
   -3.0560   49.7870  -16.1390 C   0  0  1  0  0  0  0  0  0  0  0  0
   -2.8160   50.7030  -15.1700 N   0  0  0  0  0  0  0  0  0  0  0  0
   -3.3770   51.5540  -15.1370 H   0  0  0  0  0  0  0  0  0  0  0  0
   -1.8480   50.5120  -14.2480 C   0  0  1  0  0  0  0  0  0  0  0  0
   -1.1210   49.3420  -14.3430 C   0  0  0  0  0  0  0  0  0  0  0  0
   -1.3720   48.4110  -15.3370 C   0  0  0  0  0  0  0  0  0  0  0  0
   -2.3350   48.6390  -16.2240 N   0  0  0  0  0  0  0  0  0  0  0  0
   -2.5300   47.9610  -16.9600 H   0  0  0  0  0  0  0  0  0  0  0  0
   -1.5550   51.4720  -13.1910 C   0  0  0  0  0  0  0  0  0  0  0  0
   -0.3220   52.1200  -13.0760 C   0  0  0  0  0  0  0  0  0  0  0  0
   -0.4170   52.9270  -11.9920 N   0  0  0  0  0  0  0  0  0  0  0  0
   -1.6550   52.7910  -11.4520 C   0  0  0  0  0  0  0  0  0  0  0  0
    0.3200   53.5380  -11.6400 H   0  0  0  0  0  0  0  0  0  0  0  0
   -2.3100   53.3440  -10.3700 C   0  0  0  0  0  0  0  0  0  0  0  0
   -2.3440   51.9030  -12.1850 N   0  0  0  0  0  0  0  0  0  0  0  0
   -3.6060   53.0160  -10.0400 C   0  0  0  0  0  0  0  0  0  0  0  0
   -4.2740   52.1010  -10.8200 C   0  0  0  0  0  0  0  0  0  0  0  0
   -3.6090   51.5590  -11.8960 C   0  0  0  0  0  0  0  0  0  0  0  0
    0.8100   51.9240  -13.9750 C   0  0  0  0  0  0  0  0  0  0  0  0
    0.7060   52.1100  -15.3160 C   0  0  0  0  0  0  0  0  0  0  0  0
    1.7690   51.9240  -16.1470 C   0  0  0  0  0  0  0  0  0  0  0  0
    2.9790   51.5380  -15.6070 C   0  0  0  0  0  0  0  0  0  0  0  0
    3.1110   51.3420  -14.2410 C   0  0  0  0  0  0  0  0  0  0  0  0
    2.0160   51.5370  -13.4250 C   0  0  0  0  0  0  0  0  0  0  0  0
    1.6430   52.1260  -17.6090 C   0  0  0  0  0  0  0  0  0  0  0  0
    2.6100   52.6460  -18.2230 O   0  0  0  0  0  0  0  0  0  0  0  0
    0.4390   51.7240  -18.2560 N   0  0  0  0  0  0  0  0  0  0  0  0
   -0.3040   51.3360  -17.6750 H   0  0  0  0  0  0  0  0  0  0  0  0
    0.2050   51.8260  -19.6420 C   0  0  0  0  0  0  0  0  0  0  0  0
    0.0820   50.6130  -20.3360 C   0  0  0  0  0  0  0  0  0  0  0  0
    0.1900   49.4270  -19.6700 F   0  0  0  0  0  0  0  0  0  0  0  0
   -0.1500   50.6350  -21.7040 C   0  0  0  0  0  0  0  0  0  0  0  0
   -0.2590   51.8230  -22.3690 C   0  0  0  0  0  0  0  0  0  0  0  0
   -0.1360   53.0080  -21.6780 C   0  0  0  0  0  0  0  0  0  0  0  0
    0.0950   53.0290  -20.3200 C   0  0  0  0  0  0  0  0  0  0  0  0
    0.2220   54.1580  -19.6020 F   0  0  0  0  0  0  0  0  0  0  0  0
   -4.0680   49.9590  -17.1240 N   0  0  0  0  0  0  0  0  0  0  0  0
   -4.8760   50.5420  -16.9030 H   0  0  0  0  0  0  0  0  0  0  0  0
   -3.9960   49.3470  -18.4060 C   0  0  0  0  0  0  0  0  0  0  0  0
   -4.3560   48.0300  -18.6330 C   0  0  0  0  0  0  0  0  0  0  0  0
   -4.2520   47.5410  -19.9080 C   0  0  0  0  0  0  0  0  0  0  0  0
   -3.8040   48.3320  -20.9380 C   0  0  0  0  0  0  0  0  0  0  0  0
   -3.4390   49.6460  -20.7420 C   0  0  0  0  0  0  0  0  0  0  0  0
   -3.5460   50.1340  -19.4570 C   0  0  0  0  0  0  0  0  0  0  0  0
   -4.7950   47.3030  -17.5460 O   0  0  0  0  0  0  0  0  0  0  0  0
   -4.5710   45.9050  -17.5630 C   0  0  0  0  0  0  0  0  0  0  0  0
   -3.7160   47.7760  -22.2510 N   0  0  0  0  0  0  0  0  0  0  0  0
   -2.4870   47.7720  -23.0220 C   0  0  0  0  0  0  0  0  0  0  0  0
   -2.8280   47.4200  -24.4480 C   0  0  0  0  0  0  0  0  0  0  0  0
   -3.9870   48.2480  -24.8940 C   0  0  1  0  0  0  0  0  0  0  0  0
   -5.2340   48.0350  -24.0700 C   0  0  0  0  0  0  0  0  0  0  0  0
   -4.8810   47.1790  -22.8750 C   0  0  0  0  0  0  0  0  0  0  0  0
   -3.6900   49.6500  -25.0280 N   0  0  0  0  0  0  0  0  0  0  0  0
   -3.6020   49.9720  -26.4340 C   0  0  0  0  0  0  0  0  0  0  0  0
   -3.1310   51.4040  -26.5580 C   0  0  0  0  0  0  0  0  0  0  0  0
   -2.3440   51.7360  -25.3070 C   0  0  0  0  0  0  0  0  0  0  0  0
   -3.2470   52.4580  -24.3370 C   0  0  0  0  0  0  0  0  0  0  0  0
   -4.1810   51.5550  -23.6010 C   0  0  0  0  0  0  0  0  0  0  0  0
   -4.7420   50.4280  -24.4460 C   0  0  0  0  0  0  0  0  0  0  0  0
   -0.3727   49.1569  -13.6569 H   0  0  0  0  0  0  0  0  0  0  0  0
   -0.8140   47.5444  -15.3887 H   0  0  0  0  0  0  0  0  0  0  0  0
   -1.8084   54.0306   -9.7851 H   0  0  0  0  0  0  0  0  0  0  0  0
   -3.5886   52.6273   -9.0433 H   0  0  0  0  0  0  0  0  0  0  0  0
   -5.2459   51.8288  -10.6045 H   0  0  0  0  0  0  0  0  0  0  0  0
   -4.0940   50.8723  -12.4945 H   0  0  0  0  0  0  0  0  0  0  0  0
   -0.2006   52.3993  -15.7153 H   0  0  0  0  0  0  0  0  0  0  0  0
    3.7925   51.3940  -16.2254 H   0  0  0  0  0  0  0  0  0  0  0  0
    4.0170   51.0538  -13.8396 H   0  0  0  0  0  0  0  0  0  0  0  0
    2.0979   51.3940  -12.4062 H   0  0  0  0  0  0  0  0  0  0  0  0
   -0.2408   49.7474  -22.2226 H   0  0  0  0  0  0  0  0  0  0  0  0
   -0.4330   51.8327  -23.3862 H   0  0  0  0  0  0  0  0  0  0  0  0
   -0.2188   53.9007  -22.1892 H   0  0  0  0  0  0  0  0  0  0  0  0
   -4.5147   46.5613  -20.0983 H   0  0  0  0  0  0  0  0  0  0  0  0
   -3.1021   50.2359  -21.5188 H   0  0  0  0  0  0  0  0  0  0  0  0
   -3.2834   51.1145  -19.2709 H   0  0  0  0  0  0  0  0  0  0  0  0
   -4.9591   45.4707  -16.6654 H   0  0  0  0  0  0  0  0  0  0  0  0
   -3.5203   45.7129  -17.6269 H   0  0  0  0  0  0  0  0  0  0  0  0
   -5.0643   45.4750  -18.4095 H   0  0  0  0  0  0  0  0  0  0  0  0
   -2.0336   48.7405  -22.9863 H   0  0  0  0  0  0  0  0  0  0  0  0
   -1.7995   47.0581  -22.6188 H   0  0  0  0  0  0  0  0  0  0  0  0
   -1.9847   47.6166  -25.0766 H   0  0  0  0  0  0  0  0  0  0  0  0
   -3.0818   46.3825  -24.5114 H   0  0  0  0  0  0  0  0  0  0  0  0
   -4.1926   47.8834  -25.8787 H   0  0  0  0  0  0  0  0  0  0  0  0
   -5.9766   47.5408  -24.6609 H   0  0  0  0  0  0  0  0  0  0  0  0
   -5.6221   48.9771  -23.7434 H   0  0  0  0  0  0  0  0  0  0  0  0
   -4.6571   46.1817  -23.1914 H   0  0  0  0  0  0  0  0  0  0  0  0
   -5.6987   47.1309  -22.1866 H   0  0  0  0  0  0  0  0  0  0  0  0
   -2.9041   49.3176  -26.9132 H   0  0  0  0  0  0  0  0  0  0  0  0
   -4.5566   49.8532  -26.9026 H   0  0  0  0  0  0  0  0  0  0  0  0
   -3.9727   52.0590  -26.6444 H   0  0  0  0  0  0  0  0  0  0  0  0
   -2.5217   51.5256  -27.4292 H   0  0  0  0  0  0  0  0  0  0  0  0
   -1.5149   52.3631  -25.5604 H   0  0  0  0  0  0  0  0  0  0  0  0
   -1.9785   50.8354  -24.8596 H   0  0  0  0  0  0  0  0  0  0  0  0
   -3.8275   53.1719  -24.8831 H   0  0  0  0  0  0  0  0  0  0  0  0
   -2.6161   52.9187  -23.6058 H   0  0  0  0  0  0  0  0  0  0  0  0
   -3.6533   51.1258  -22.7750 H   0  0  0  0  0  0  0  0  0  0  0  0
   -5.0121   52.1540  -23.2921 H   0  0  0  0  0  0  0  0  0  0  0  0
   -5.3451   49.7950  -23.8291 H   0  0  0  0  0  0  0  0  0  0  0  0
   -5.3282   50.8523  -25.2342 H   0  0  0  0  0  0  0  0  0  0  0  0
  1 37  1  1  0  0  0
  1  2  1  0  0  0  0
  2  3  1  0  0  0  0
  2  4  1  0  0  0  0
  4  9  1  6  0  0  0
  5  4  1  0  0  0  0
  5 60  1  0  0  0  0
  6  5  2  0  0  0  0
  6 61  1  0  0  0  0
  7  1  1  0  0  0  0
  7  6  1  0  0  0  0
  8  7  1  0  0  0  0
  9 10  2  0  0  0  0
  9 15  1  0  0  0  0
 10 11  1  0  0  0  0
 11 13  1  0  0  0  0
 11 12  1  0  0  0  0
 12 14  2  0  0  0  0
 14 16  1  0  0  0  0
 14 62  1  0  0  0  0
 15 18  1  0  0  0  0
 15 12  1  0  0  0  0
 16 63  1  0  0  0  0
 17 16  1  0  0  0  0
 17 64  1  0  0  0  0
 18 17  2  0  0  0  0
 18 65  1  0  0  0  0
 19 24  1  0  0  0  0
 19 10  1  0  0  0  0
 20 19  2  0  0  0  0
 20 66  1  0  0  0  0
 21 22  2  0  0  0  0
 21 20  1  0  0  0  0
 22 23  1  0  0  0  0
 22 67  1  0  0  0  0
 23 24  2  0  0  0  0
 23 68  1  0  0  0  0
 24 69  1  0  0  0  0
 25 21  1  0  0  0  0
 26 25  2  0  0  0  0
 27 28  1  0  0  0  0
 27 25  1  0  0  0  0
 29 27  1  0  0  0  0
 30 31  1  0  0  0  0
 30 29  2  0  0  0  0
 32 30  1  0  0  0  0
 32 70  1  0  0  0  0
 33 32  2  0  0  0  0
 33 34  1  0  0  0  0
 33 71  1  0  0  0  0
 34 35  2  0  0  0  0
 34 72  1  0  0  0  0
 35 29  1  0  0  0  0
 35 36  1  0  0  0  0
 37 38  1  0  0  0  0
 39 37  1  0  0  0  0
 40 39  1  0  0  0  0
 40 45  1  0  0  0  0
 41 40  2  0  0  0  0
 41 73  1  0  0  0  0
 42 43  2  0  0  0  0
 42 41  1  0  0  0  0
 43 44  1  0  0  0  0
 43 74  1  0  0  0  0
 44 39  2  0  0  0  0
 44 75  1  0  0  0  0
 46 45  1  0  0  0  0
 46 76  1  0  0  0  0
 46 77  1  0  0  0  0
 46 78  1  0  0  0  0
 47 42  1  0  0  0  0
 48 47  1  0  0  0  0
 48 79  1  0  0  0  0
 48 80  1  0  0  0  0
 49 48  1  0  0  0  0
 49 81  1  0  0  0  0
 49 82  1  0  0  0  0
 50 49  1  0  0  0  0
 50 51  1  0  0  0  0
 50 83  1  6  0  0  0
 51 52  1  0  0  0  0
 51 84  1  0  0  0  0
 51 85  1  0  0  0  0
 52 47  1  0  0  0  0
 52 86  1  0  0  0  0
 52 87  1  0  0  0  0
 53 50  1  0  0  0  0
 53 59  1  0  0  0  0
 54 53  1  0  0  0  0
 54 88  1  0  0  0  0
 54 89  1  0  0  0  0
 55 54  1  0  0  0  0
 55 56  1  0  0  0  0
 55 90  1  0  0  0  0
 55 91  1  0  0  0  0
 56 57  1  0  0  0  0
 56 92  1  0  0  0  0
 56 93  1  0  0  0  0
 57 58  1  0  0  0  0
 57 94  1  0  0  0  0
 57 95  1  0  0  0  0
 58 96  1  0  0  0  0
 58 97  1  0  0  0  0
 59 58  1  0  0  0  0
 59 98  1  0  0  0  0
 59 99  1  0  0  0  0
M  END
>  <REMARK>
 VINA RESULT:      -9.9      2.803      4.711
  9 active torsions:
  status: ('A' for Active; 'I' for Inactive)
    1  A    between atoms: O_2  and  C_3 
    2  A    between atoms: C_4  and  N_5 
    3  A    between atoms: N_5  and  C_7 
    4  A    between atoms: C_10  and  C_11 
    5  A    between atoms: C_12  and  C_13 
    6  A    between atoms: C_15  and  C_16 
       I    between atoms: C_16  and  N_18 
    7  A    between atoms: N_18  and  C_20 
    8  A    between atoms: C_45  and  N_46 
    9  A    between atoms: C_49  and  N_50 

>  <TORSDO>
F 9

$$$$
resistance_project/docking/8faf60323ce63d5a/P00533_WT/docked/molecule_0007_out.pdbqt
 OpenBabel09142609543D

 99106  0  0  1  0  0  0  0  0999 V2000
   -3.9760   46.3780  -16.4220 C   0  0  1  0  0  0  0  0  0  0  0  0
   -4.0040   47.4740  -15.6270 N   0  0  0  0  0  0  0  0  0  0  0  0
   -4.6750   48.2170  -15.8240 H   0  0  0  0  0  0  0  0  0  0  0  0
   -3.1620   47.6040  -14.5790 C   0  0  2  0  0  0  0  0  0  0  0  0
   -2.2780   46.5660  -14.3610 C   0  0  0  0  0  0  0  0  0  0  0  0
   -2.2550   45.4490  -15.1790 C   0  0  0  0  0  0  0  0  0  0  0  0
   -3.1020   45.3630  -16.1990 N   0  0  0  0  0  0  0  0  0  0  0  0
   -3.0950   44.5450  -16.8090 H   0  0  0  0  0  0  0  0  0  0  0  0
   -3.1580   48.7670  -13.7000 C   0  0  0  0  0  0  0  0  0  0  0  0
   -2.2270   49.8020  -13.8190 C   0  0  0  0  0  0  0  0  0  0  0  0
   -2.5290   50.6970  -12.8470 N   0  0  0  0  0  0  0  0  0  0  0  0
   -3.6020   50.2430  -12.1520 C   0  0  0  0  0  0  0  0  0  0  0  0
   -2.0330   51.5700  -12.6690 H   0  0  0  0  0  0  0  0  0  0  0  0
   -4.3390   50.7130  -11.0840 C   0  0  0  0  0  0  0  0  0  0  0  0
   -3.9820   49.0660  -12.6750 N   0  0  0  0  0  0  0  0  0  0  0  0
   -5.4130   50.0260  -10.5620 C   0  0  0  0  0  0  0  0  0  0  0  0
   -5.7660   48.8240  -11.1300 C   0  0  0  0  0  0  0  0  0  0  0  0
   -5.0240   48.3680  -12.1950 C   0  0  0  0  0  0  0  0  0  0  0  0
   -1.1580   49.8540  -14.8100 C   0  0  0  0  0  0  0  0  0  0  0  0
   -1.3600   50.3380  -16.0620 C   0  0  0  0  0  0  0  0  0  0  0  0
   -0.3560   50.3820  -16.9820 C   0  0  0  0  0  0  0  0  0  0  0  0
    0.8960   49.9220  -16.6250 C   0  0  0  0  0  0  0  0  0  0  0  0
    1.1280   49.4230  -15.3530 C   0  0  0  0  0  0  0  0  0  0  0  0
    0.0900   49.3900  -14.4440 C   0  0  0  0  0  0  0  0  0  0  0  0
   -0.5890   50.9090  -18.3460 C   0  0  0  0  0  0  0  0  0  0  0  0
   -1.7630   51.2220  -18.6710 O   0  0  0  0  0  0  0  0  0  0  0  0
    0.5220   51.0400  -19.2290 N   0  0  0  0  0  0  0  0  0  0  0  0
    1.4350   50.7360  -18.8910 H   0  0  0  0  0  0  0  0  0  0  0  0
    0.4450   51.5610  -20.5370 C   0  0  0  0  0  0  0  0  0  0  0  0
    1.0930   52.7860  -20.7510 C   0  0  0  0  0  0  0  0  0  0  0  0
    1.7480   53.4030  -19.7260 F   0  0  0  0  0  0  0  0  0  0  0  0
    1.0610   53.3580  -22.0150 C   0  0  0  0  0  0  0  0  0  0  0  0
    0.4050   52.7380  -23.0400 C   0  0  0  0  0  0  0  0  0  0  0  0
   -0.2290   51.5360  -22.8180 C   0  0  0  0  0  0  0  0  0  0  0  0
   -0.2200   50.9340  -21.5790 C   0  0  0  0  0  0  0  0  0  0  0  0
   -0.8230   49.7630  -21.3140 F   0  0  0  0  0  0  0  0  0  0  0  0
   -4.8500   46.2120  -17.5320 N   0  0  0  0  0  0  0  0  0  0  0  0
   -5.4280   45.3730  -17.5820 H   0  0  0  0  0  0  0  0  0  0  0  0
   -4.9480   47.1730  -18.5760 C   0  0  0  0  0  0  0  0  0  0  0  0
   -3.8790   47.9520  -18.9840 C   0  0  0  0  0  0  0  0  0  0  0  0
   -4.0800   48.8450  -20.0030 C   0  0  0  0  0  0  0  0  0  0  0  0
   -5.3080   48.9690  -20.6070 C   0  0  0  0  0  0  0  0  0  0  0  0
   -6.3900   48.2070  -20.2210 C   0  0  0  0  0  0  0  0  0  0  0  0
   -6.1820   47.3100  -19.1960 C   0  0  0  0  0  0  0  0  0  0  0  0
   -2.6800   47.7670  -18.3270 O   0  0  0  0  0  0  0  0  0  0  0  0
   -1.5400   47.4800  -19.1170 C   0  0  0  0  0  0  0  0  0  0  0  0
   -5.4670   49.9130  -21.6670 N   0  0  0  0  0  0  0  0  0  0  0  0
   -6.3530   49.6890  -22.7930 C   0  0  0  0  0  0  0  0  0  0  0  0
   -6.0290   50.7080  -23.8560 C   0  0  0  0  0  0  0  0  0  0  0  0
   -4.5520   50.7470  -24.0640 C   0  0  1  0  0  0  0  0  0  0  0  0
   -3.7770   51.1310  -22.8260 C   0  0  0  0  0  0  0  0  0  0  0  0
   -4.7310   51.1630  -21.6530 C   0  0  0  0  0  0  0  0  0  0  0  0
   -4.0110   49.5550  -24.6630 N   0  0  0  0  0  0  0  0  0  0  0  0
   -3.6420   49.8500  -26.0280 C   0  0  0  0  0  0  0  0  0  0  0  0
   -3.2290   48.5550  -26.6920 C   0  0  0  0  0  0  0  0  0  0  0  0
   -3.9330   47.4260  -25.9670 C   0  0  0  0  0  0  0  0  0  0  0  0
   -2.9870   46.8300  -24.9530 C   0  0  0  0  0  0  0  0  0  0  0  0
   -2.8510   47.6450  -23.7090 C   0  0  0  0  0  0  0  0  0  0  0  0
   -2.8400   49.1410  -23.9520 C   0  0  0  0  0  0  0  0  0  0  0  0
   -1.6185   46.6241  -13.5693 H   0  0  0  0  0  0  0  0  0  0  0  0
   -1.5832   44.6870  -14.9972 H   0  0  0  0  0  0  0  0  0  0  0  0
   -4.0749   51.6157  -10.6592 H   0  0  0  0  0  0  0  0  0  0  0  0
   -5.1950   49.8359   -9.5318 H   0  0  0  0  0  0  0  0  0  0  0  0
   -6.5645   48.2799  -10.7677 H   0  0  0  0  0  0  0  0  0  0  0  0
   -5.2740   47.4687  -12.6352 H   0  0  0  0  0  0  0  0  0  0  0  0
   -2.2975   50.6812  -16.3235 H   0  0  0  0  0  0  0  0  0  0  0  0
    1.6660   49.9500  -17.3116 H   0  0  0  0  0  0  0  0  0  0  0  0
    2.0650   49.0805  -15.0889 H   0  0  0  0  0  0  0  0  0  0  0  0
    0.2461   49.0196  -13.4935 H   0  0  0  0  0  0  0  0  0  0  0  0
    1.5365   54.2586  -22.1817 H   0  0  0  0  0  0  0  0  0  0  0  0
    0.3846   53.1688  -23.9775 H   0  0  0  0  0  0  0  0  0  0  0  0
   -0.7226   51.0752  -23.5984 H   0  0  0  0  0  0  0  0  0  0  0  0
   -3.2957   49.4348  -20.3226 H   0  0  0  0  0  0  0  0  0  0  0  0
   -7.3106   48.3036  -20.6773 H   0  0  0  0  0  0  0  0  0  0  0  0
   -6.9685   46.7216  -18.8794 H   0  0  0  0  0  0  0  0  0  0  0  0
   -0.6868   47.3615  -18.4822 H   0  0  0  0  0  0  0  0  0  0  0  0
   -1.3673   48.2854  -19.7999 H   0  0  0  0  0  0  0  0  0  0  0  0
   -1.7046   46.5763  -19.6657 H   0  0  0  0  0  0  0  0  0  0  0  0
   -6.2052   48.7023  -23.1797 H   0  0  0  0  0  0  0  0  0  0  0  0
   -7.3734   49.7862  -22.4860 H   0  0  0  0  0  0  0  0  0  0  0  0
   -6.5123   50.4365  -24.7712 H   0  0  0  0  0  0  0  0  0  0  0  0
   -6.3742   51.6724  -23.5467 H   0  0  0  0  0  0  0  0  0  0  0  0
   -4.4196   51.5342  -24.7766 H   0  0  0  0  0  0  0  0  0  0  0  0
   -3.3378   52.0974  -22.9605 H   0  0  0  0  0  0  0  0  0  0  0  0
   -2.9983   50.4197  -22.6458 H   0  0  0  0  0  0  0  0  0  0  0  0
   -5.4060   51.9874  -21.7514 H   0  0  0  0  0  0  0  0  0  0  0  0
   -4.1985   51.2809  -20.7324 H   0  0  0  0  0  0  0  0  0  0  0  0
   -4.4769   50.2734  -26.5462 H   0  0  0  0  0  0  0  0  0  0  0  0
   -2.8354   50.5527  -26.0510 H   0  0  0  0  0  0  0  0  0  0  0  0
   -2.1687   48.4299  -26.6206 H   0  0  0  0  0  0  0  0  0  0  0  0
   -3.4957   48.5613  -27.7282 H   0  0  0  0  0  0  0  0  0  0  0  0
   -4.2252   46.6746  -26.6705 H   0  0  0  0  0  0  0  0  0  0  0  0
   -4.8047   47.8010  -25.4725 H   0  0  0  0  0  0  0  0  0  0  0  0
   -2.0212   46.7386  -25.4045 H   0  0  0  0  0  0  0  0  0  0  0  0
   -3.3932   45.8832  -24.6643 H   0  0  0  0  0  0  0  0  0  0  0  0
   -1.9339   47.3752  -23.2282 H   0  0  0  0  0  0  0  0  0  0  0  0
   -3.7091   47.4351  -23.1053 H   0  0  0  0  0  0  0  0  0  0  0  0
   -2.8052   49.6480  -23.0104 H   0  0  0  0  0  0  0  0  0  0  0  0
   -1.9805   49.3838  -24.5412 H   0  0  0  0  0  0  0  0  0  0  0  0
  1 37  1  1  0  0  0
  1  7  1  0  0  0  0
  1  2  1  0  0  0  0
  2  4  1  0  0  0  0
  3  2  1  0  0  0  0
  4  5  1  0  0  0  0
  4  9  1  1  0  0  0
  5 60  1  0  0  0  0
  6  5  2  0  0  0  0
  6 61  1  0  0  0  0
  7  6  1  0  0  0  0
  8  7  1  0  0  0  0
  9 15  1  0  0  0  0
 10  9  2  0  0  0  0
 10 11  1  0  0  0  0
 11 13  1  0  0  0  0
 11 12  1  0  0  0  0
 12 14  2  0  0  0  0
 14 16  1  0  0  0  0
 14 62  1  0  0  0  0
 15 18  1  0  0  0  0
 15 12  1  0  0  0  0
 16 63  1  0  0  0  0
 17 16  1  0  0  0  0
 17 64  1  0  0  0  0
 18 17  2  0  0  0  0
 18 65  1  0  0  0  0
 19 24  1  0  0  0  0
 19 10  1  0  0  0  0
 20 19  2  0  0  0  0
 20 66  1  0  0  0  0
 21 22  2  0  0  0  0
 21 20  1  0  0  0  0
 22 23  1  0  0  0  0
 22 67  1  0  0  0  0
 23 24  2  0  0  0  0
 23 68  1  0  0  0  0
 24 69  1  0  0  0  0
 25 21  1  0  0  0  0
 26 25  2  0  0  0  0
 27 28  1  0  0  0  0
 27 25  1  0  0  0  0
 29 27  1  0  0  0  0
 30 29  1  0  0  0  0
 30 31  1  0  0  0  0
 32 30  2  0  0  0  0
 32 70  1  0  0  0  0
 33 34  2  0  0  0  0
 33 32  1  0  0  0  0
 33 71  1  0  0  0  0
 34 35  1  0  0  0  0
 34 72  1  0  0  0  0
 35 36  1  0  0  0  0
 35 29  2  0  0  0  0
 38 37  1  0  0  0  0
 39 37  1  0  0  0  0
 40 39  1  0  0  0  0
 40 45  1  0  0  0  0
 41 40  2  0  0  0  0
 41 73  1  0  0  0  0
 42 43  2  0  0  0  0
 42 41  1  0  0  0  0
 43 44  1  0  0  0  0
 43 74  1  0  0  0  0
 44 39  2  0  0  0  0
 44 75  1  0  0  0  0
 46 45  1  0  0  0  0
 46 76  1  0  0  0  0
 46 77  1  0  0  0  0
 46 78  1  0  0  0  0
 47 52  1  0  0  0  0
 47 42  1  0  0  0  0
 48 47  1  0  0  0  0
 48 79  1  0  0  0  0
 48 80  1  0  0  0  0
 49 48  1  0  0  0  0
 49 81  1  0  0  0  0
 49 82  1  0  0  0  0
 50 49  1  0  0  0  0
 50 51  1  0  0  0  0
 50 83  1  6  0  0  0
 51 52  1  0  0  0  0
 51 84  1  0  0  0  0
 51 85  1  0  0  0  0
 52 86  1  0  0  0  0
 52 87  1  0  0  0  0
 53 50  1  0  0  0  0
 53 59  1  0  0  0  0
 54 53  1  0  0  0  0
 54 88  1  0  0  0  0
 54 89  1  0  0  0  0
 55 54  1  0  0  0  0
 55 56  1  0  0  0  0
 55 90  1  0  0  0  0
 55 91  1  0  0  0  0
 56 57  1  0  0  0  0
 56 92  1  0  0  0  0
 56 93  1  0  0  0  0
 57 58  1  0  0  0  0
 57 94  1  0  0  0  0
 57 95  1  0  0  0  0
 58 96  1  0  0  0  0
 58 97  1  0  0  0  0
 59 58  1  0  0  0  0
 59 98  1  0  0  0  0
 59 99  1  0  0  0  0
M  END
>  <REMARK>
 VINA RESULT:      -9.8      2.938      5.331
  9 active torsions:
  status: ('A' for Active; 'I' for Inactive)
    1  A    between atoms: O_2  and  C_3 
    2  A    between atoms: C_4  and  N_5 
    3  A    between atoms: N_5  and  C_7 
    4  A    between atoms: C_10  and  C_11 
    5  A    between atoms: C_12  and  C_13 
    6  A    between atoms: C_15  and  C_16 
       I    between atoms: C_16  and  N_18 
    7  A    between atoms: N_18  and  C_20 
    8  A    between atoms: C_45  and  N_46 
    9  A    between atoms: C_49  and  N_50 

>  <TORSDO>
F 9

$$$$
resistance_project/docking/8faf60323ce63d5a/P00533_WT/docked/molecule_0007_out.pdbqt
 OpenBabel09142609543D

 99106  0  0  1  0  0  0  0  0999 V2000
   -3.9090   46.1140  -16.0630 C   0  0  2  0  0  0  0  0  0  0  0  0
   -3.9730   47.2830  -15.3800 N   0  0  0  0  0  0  0  0  0  0  0  0
   -4.7090   47.9520  -15.6040 H   0  0  0  0  0  0  0  0  0  0  0  0
   -3.0820   47.5790  -14.4100 C   0  0  1  0  0  0  0  0  0  0  0  0
   -2.1080   46.6340  -14.1510 C   0  0  0  0  0  0  0  0  0  0  0  0
   -2.0490   45.4420  -14.8540 C   0  0  0  0  0  0  0  0  0  0  0  0
   -2.9470   45.1920  -15.8010 N   0  0  0  0  0  0  0  0  0  0  0  0
   -2.9140   44.3180  -16.3250 H   0  0  0  0  0  0  0  0  0  0  0  0
   -3.1130   48.8240  -13.6520 C   0  0  0  0  0  0  0  0  0  0  0  0
   -2.2210   49.8740  -13.8840 C   0  0  0  0  0  0  0  0  0  0  0  0
   -2.5490   50.8510  -13.0050 N   0  0  0  0  0  0  0  0  0  0  0  0
   -3.6010   50.4320  -12.2560 C   0  0  0  0  0  0  0  0  0  0  0  0
   -2.0830   51.7550  -12.9200 H   0  0  0  0  0  0  0  0  0  0  0  0
   -4.3470   50.9810  -11.2330 C   0  0  0  0  0  0  0  0  0  0  0  0
   -3.9410   49.1960  -12.6540 N   0  0  0  0  0  0  0  0  0  0  0  0
   -5.3920   50.3140  -10.6340 C   0  0  0  0  0  0  0  0  0  0  0  0
   -5.7050   49.0480  -11.0750 C   0  0  0  0  0  0  0  0  0  0  0  0
   -4.9540   48.5140  -12.0960 C   0  0  0  0  0  0  0  0  0  0  0  0
   -1.1610   49.8630  -14.8860 C   0  0  0  0  0  0  0  0  0  0  0  0
   -1.3310   50.4050  -16.1200 C   0  0  0  0  0  0  0  0  0  0  0  0
   -0.3360   50.3890  -17.0500 C   0  0  0  0  0  0  0  0  0  0  0  0
    0.8730   49.8080  -16.7230 C   0  0  0  0  0  0  0  0  0  0  0  0
    1.0720   49.2490  -15.4710 C   0  0  0  0  0  0  0  0  0  0  0  0
    0.0440   49.2790  -14.5510 C   0  0  0  0  0  0  0  0  0  0  0  0
   -0.5330   50.9790  -18.3930 C   0  0  0  0  0  0  0  0  0  0  0  0
   -1.6560   51.4780  -18.6650 O   0  0  0  0  0  0  0  0  0  0  0  0
    0.5500   50.9580  -19.3180 N   0  0  0  0  0  0  0  0  0  0  0  0
    1.4170   50.5070  -19.0230 H   0  0  0  0  0  0  0  0  0  0  0  0
    0.5080   51.5150  -20.6120 C   0  0  0  0  0  0  0  0  0  0  0  0
    1.2230   52.7080  -20.7920 C   0  0  0  0  0  0  0  0  0  0  0  0
    1.9060   53.2620  -19.7490 F   0  0  0  0  0  0  0  0  0  0  0  0
    1.2270   53.3150  -22.0400 C   0  0  0  0  0  0  0  0  0  0  0  0
    0.5430   52.7590  -23.0830 C   0  0  0  0  0  0  0  0  0  0  0  0
   -0.1570   51.5870  -22.8950 C   0  0  0  0  0  0  0  0  0  0  0  0
   -0.1860   50.9530  -21.6720 C   0  0  0  0  0  0  0  0  0  0  0  0
   -0.8530   49.8110  -21.4400 F   0  0  0  0  0  0  0  0  0  0  0  0
   -4.8320   45.7740  -17.0900 N   0  0  0  0  0  0  0  0  0  0  0  0
   -5.7210   45.3450  -16.8300 H   0  0  0  0  0  0  0  0  0  0  0  0
   -4.5620   46.0080  -18.4670 C   0  0  0  0  0  0  0  0  0  0  0  0
   -4.6600   47.2590  -19.0500 C   0  0  0  0  0  0  0  0  0  0  0  0
   -4.3730   47.3760  -20.3840 C   0  0  0  0  0  0  0  0  0  0  0  0
   -3.9980   46.2830  -21.1290 C   0  0  0  0  0  0  0  0  0  0  0  0
   -3.8920   45.0260  -20.5740 C   0  0  0  0  0  0  0  0  0  0  0  0
   -4.1810   44.9140  -19.2310 C   0  0  0  0  0  0  0  0  0  0  0  0
   -5.0430   48.3040  -18.2340 O   0  0  0  0  0  0  0  0  0  0  0  0
   -4.2620   49.4850  -18.2770 C   0  0  0  0  0  0  0  0  0  0  0  0
   -3.7070   46.4570  -22.5160 N   0  0  0  0  0  0  0  0  0  0  0  0
   -2.5100   47.1260  -22.9900 C   0  0  0  0  0  0  0  0  0  0  0  0
   -2.6850   47.4180  -24.4590 C   0  0  0  0  0  0  0  0  0  0  0  0
   -4.0240   48.0390  -24.6790 C   0  0  1  0  0  0  0  0  0  0  0  0
   -5.1750   47.1560  -24.2580 C   0  0  0  0  0  0  0  0  0  0  0  0
   -4.6190   45.9560  -23.5270 C   0  0  0  0  0  0  0  0  0  0  0  0
   -4.1570   49.3600  -24.1260 N   0  0  0  0  0  0  0  0  0  0  0  0
   -3.9170   50.3270  -25.1720 C   0  0  0  0  0  0  0  0  0  0  0  0
   -3.9000   51.7030  -24.5450 C   0  0  0  0  0  0  0  0  0  0  0  0
   -3.4980   51.5370  -23.0930 C   0  0  0  0  0  0  0  0  0  0  0  0
   -4.7420   51.5200  -22.2390 C   0  0  0  0  0  0  0  0  0  0  0  0
   -5.4680   50.2150  -22.2660 C   0  0  0  0  0  0  0  0  0  0  0  0
   -5.4860   49.5480  -23.6270 C   0  0  0  0  0  0  0  0  0  0  0  0
   -1.4077   46.8207  -13.4163 H   0  0  0  0  0  0  0  0  0  0  0  0
   -1.3114   44.7516  -14.6434 H   0  0  0  0  0  0  0  0  0  0  0  0
   -4.1120   51.9303  -10.9035 H   0  0  0  0  0  0  0  0  0  0  0  0
   -6.2662   50.9176  -10.7619 H   0  0  0  0  0  0  0  0  0  0  0  0
   -6.4808   48.5150  -10.6517 H   0  0  0  0  0  0  0  0  0  0  0  0
   -5.1743   47.5668  -12.4413 H   0  0  0  0  0  0  0  0  0  0  0  0
   -2.2362   50.8395  -16.3586 H   0  0  0  0  0  0  0  0  0  0  0  0
    1.6358   49.7899  -17.4178 H   0  0  0  0  0  0  0  0  0  0  0  0
    1.9771   48.8159  -15.2297 H   0  0  0  0  0  0  0  0  0  0  0  0
    0.1758   48.8657  -13.6146 H   0  0  0  0  0  0  0  0  0  0  0  0
    1.7507   54.1930  -22.1809 H   0  0  0  0  0  0  0  0  0  0  0  0
    0.5503   53.2150  -24.0088 H   0  0  0  0  0  0  0  0  0  0  0  0
   -0.6716   51.1745  -23.6888 H   0  0  0  0  0  0  0  0  0  0  0  0
   -4.4394   48.3005  -20.8378 H   0  0  0  0  0  0  0  0  0  0  0  0
   -3.6099   44.2082  -21.1367 H   0  0  0  0  0  0  0  0  0  0  0  0
   -4.1119   43.9884  -18.7799 H   0  0  0  0  0  0  0  0  0  0  0  0
   -4.6692   50.2067  -17.6000 H   0  0  0  0  0  0  0  0  0  0  0  0
   -4.2712   49.8827  -19.2703 H   0  0  0  0  0  0  0  0  0  0  0  0
   -3.2557   49.2577  -17.9932 H   0  0  0  0  0  0  0  0  0  0  0  0
   -2.3693   48.0407  -22.4530 H   0  0  0  0  0  0  0  0  0  0  0  0
   -1.6530   46.5042  -22.8359 H   0  0  0  0  0  0  0  0  0  0  0  0
   -1.9201   48.0921  -24.7836 H   0  0  0  0  0  0  0  0  0  0  0  0
   -2.6142   46.5081  -25.0176 H   0  0  0  0  0  0  0  0  0  0  0  0
   -4.0802   48.1468  -25.7421 H   0  0  0  0  0  0  0  0  0  0  0  0
   -5.7163   46.8326  -25.1225 H   0  0  0  0  0  0  0  0  0  0  0  0
   -5.8378   47.6996  -23.6176 H   0  0  0  0  0  0  0  0  0  0  0  0
   -4.0960   45.3200  -24.2102 H   0  0  0  0  0  0  0  0  0  0  0  0
   -5.4055   45.3841  -23.0806 H   0  0  0  0  0  0  0  0  0  0  0  0
   -2.9748   50.1296  -25.6391 H   0  0  0  0  0  0  0  0  0  0  0  0
   -4.6848   50.2677  -25.9149 H   0  0  0  0  0  0  0  0  0  0  0  0
   -4.8727   52.1446  -24.6066 H   0  0  0  0  0  0  0  0  0  0  0  0
   -3.2104   52.3417  -25.0563 H   0  0  0  0  0  0  0  0  0  0  0  0
   -2.8715   52.3529  -22.7985 H   0  0  0  0  0  0  0  0  0  0  0  0
   -2.9609   50.6199  -22.9686 H   0  0  0  0  0  0  0  0  0  0  0  0
   -5.4044   52.2830  -22.5910 H   0  0  0  0  0  0  0  0  0  0  0  0
   -4.4312   51.6853  -21.2286 H   0  0  0  0  0  0  0  0  0  0  0  0
   -4.9943   49.5520  -21.5725 H   0  0  0  0  0  0  0  0  0  0  0  0
   -6.4859   50.4215  -22.0088 H   0  0  0  0  0  0  0  0  0  0  0  0
   -5.9659   48.5953  -23.5431 H   0  0  0  0  0  0  0  0  0  0  0  0
   -6.0188   50.1785  -24.3077 H   0  0  0  0  0  0  0  0  0  0  0  0
  1 37  1  6  0  0  0
  1  7  1  0  0  0  0
  1  2  1  0  0  0  0
  2  4  1  0  0  0  0
  3  2  1  0  0  0  0
  4  5  1  0  0  0  0
  4  9  1  6  0  0  0
  5 60  1  0  0  0  0
  6  5  2  0  0  0  0
  6 61  1  0  0  0  0
  7  6  1  0  0  0  0
  8  7  1  0  0  0  0
  9 15  1  0  0  0  0
 10  9  2  0  0  0  0
 10 11  1  0  0  0  0
 11 13  1  0  0  0  0
 11 12  1  0  0  0  0
 12 14  2  0  0  0  0
 14 16  1  0  0  0  0
 14 62  1  0  0  0  0
 15 12  1  0  0  0  0
 15 18  1  0  0  0  0
 16 63  1  0  0  0  0
 17 16  1  0  0  0  0
 17 64  1  0  0  0  0
 18 17  2  0  0  0  0
 18 65  1  0  0  0  0
 19 24  1  0  0  0  0
 19 10  1  0  0  0  0
 20 19  2  0  0  0  0
 20 66  1  0  0  0  0
 21 22  2  0  0  0  0
 21 20  1  0  0  0  0
 22 23  1  0  0  0  0
 22 67  1  0  0  0  0
 23 24  2  0  0  0  0
 23 68  1  0  0  0  0
 24 69  1  0  0  0  0
 25 21  1  0  0  0  0
 26 25  2  0  0  0  0
 27 28  1  0  0  0  0
 27 25  1  0  0  0  0
 29 27  1  0  0  0  0
 30 29  1  0  0  0  0
 30 31  1  0  0  0  0
 32 30  2  0  0  0  0
 32 70  1  0  0  0  0
 33 34  2  0  0  0  0
 33 32  1  0  0  0  0
 33 71  1  0  0  0  0
 34 35  1  0  0  0  0
 34 72  1  0  0  0  0
 35 36  1  0  0  0  0
 35 29  2  0  0  0  0
 37 38  1  0  0  0  0
 39 37  1  0  0  0  0
 40 39  1  0  0  0  0
 40 45  1  0  0  0  0
 41 40  2  0  0  0  0
 41 73  1  0  0  0  0
 42 43  2  0  0  0  0
 42 41  1  0  0  0  0
 43 44  1  0  0  0  0
 43 74  1  0  0  0  0
 44 39  2  0  0  0  0
 44 75  1  0  0  0  0
 46 45  1  0  0  0  0
 46 76  1  0  0  0  0
 46 77  1  0  0  0  0
 46 78  1  0  0  0  0
 47 42  1  0  0  0  0
 48 47  1  0  0  0  0
 48 79  1  0  0  0  0
 48 80  1  0  0  0  0
 49 48  1  0  0  0  0
 49 81  1  0  0  0  0
 49 82  1  0  0  0  0
 50 49  1  0  0  0  0
 50 51  1  0  0  0  0
 50 53  1  0  0  0  0
 50 83  1  6  0  0  0
 51 52  1  0  0  0  0
 51 84  1  0  0  0  0
 51 85  1  0  0  0  0
 52 47  1  0  0  0  0
 52 86  1  0  0  0  0
 52 87  1  0  0  0  0
 53 59  1  0  0  0  0
 54 55  1  0  0  0  0
 54 53  1  0  0  0  0
 54 88  1  0  0  0  0
 54 89  1  0  0  0  0
 55 56  1  0  0  0  0
 55 90  1  0  0  0  0
 55 91  1  0  0  0  0
 56 57  1  0  0  0  0
 56 92  1  0  0  0  0
 56 93  1  0  0  0  0
 57 94  1  0  0  0  0
 57 95  1  0  0  0  0
 58 57  1  0  0  0  0
 58 96  1  0  0  0  0
 58 97  1  0  0  0  0
 59 58  1  0  0  0  0
 59 98  1  0  0  0  0
 59 99  1  0  0  0  0
M  END
>  <REMARK>
 VINA RESULT:      -9.7      2.794      4.946
  9 active torsions:
  status: ('A' for Active; 'I' for Inactive)
    1  A    between atoms: O_2  and  C_3 
    2  A    between atoms: C_4  and  N_5 
    3  A    between atoms: N_5  and  C_7 
    4  A    between atoms: C_10  and  C_11 
    5  A    between atoms: C_12  and  C_13 
    6  A    between atoms: C_15  and  C_16 
       I    between atoms: C_16  and  N_18 
    7  A    between atoms: N_18  and  C_20 
    8  A    between atoms: C_45  and  N_46 
    9  A    between atoms: C_49  and  N_50 

>  <TORSDO>
F 9

$$$$
resistance_project/docking/8faf60323ce63d5a/P00533_WT/docked/molecule_0007_out.pdbqt
 OpenBabel09142609543D

 99106  0  0  1  0  0  0  0  0999 V2000
   -3.3220   50.4090  -16.1100 C   0  0  1  0  0  0  0  0  0  0  0  0
   -2.2680   49.5640  -16.0080 N   0  0  0  0  0  0  0  0  0  0  0  0
   -2.0760   48.9110  -16.7680 H   0  0  0  0  0  0  0  0  0  0  0  0
   -1.4680   49.5670  -14.9200 C   0  0  2  0  0  0  0  0  0  0  0  0
   -1.7780   50.4720  -13.9240 C   0  0  0  0  0  0  0  0  0  0  0  0
   -2.8570   51.3320  -14.0360 C   0  0  0  0  0  0  0  0  0  0  0  0
   -3.6180   51.2950  -15.1240 N   0  0  0  0  0  0  0  0  0  0  0  0
   -4.4160   51.9230  -15.2180 H   0  0  0  0  0  0  0  0  0  0  0  0
   -0.3250   48.6750  -14.7690 C   0  0  0  0  0  0  0  0  0  0  0  0
    0.9580   49.0060  -15.2140 C   0  0  0  0  0  0  0  0  0  0  0  0
    1.7490   47.9510  -14.9050 N   0  0  0  0  0  0  0  0  0  0  0  0
    0.9960   47.0020  -14.2940 C   0  0  0  0  0  0  0  0  0  0  0  0
    2.7490   47.8810  -15.1000 H   0  0  0  0  0  0  0  0  0  0  0  0
    1.2470   45.7500  -13.7690 C   0  0  0  0  0  0  0  0  0  0  0  0
   -0.2680   47.4470  -14.2130 N   0  0  0  0  0  0  0  0  0  0  0  0
    0.2660   44.9770  -13.1880 C   0  0  0  0  0  0  0  0  0  0  0  0
   -1.0160   45.4750  -13.1280 C   0  0  0  0  0  0  0  0  0  0  0  0
   -1.2510   46.7250  -13.6530 C   0  0  0  0  0  0  0  0  0  0  0  0
    1.3140   50.2550  -15.8780 C   0  0  0  0  0  0  0  0  0  0  0  0
    0.7910   50.6060  -17.0800 C   0  0  0  0  0  0  0  0  0  0  0  0
    1.1310   51.7750  -17.6930 C   0  0  0  0  0  0  0  0  0  0  0  0
    2.0290   52.6180  -17.0700 C   0  0  0  0  0  0  0  0  0  0  0  0
    2.5770   52.2820  -15.8420 C   0  0  0  0  0  0  0  0  0  0  0  0
    2.2140   51.0910  -15.2480 C   0  0  0  0  0  0  0  0  0  0  0  0
    0.5570   52.1460  -19.0060 C   0  0  0  0  0  0  0  0  0  0  0  0
   -0.5590   52.7270  -19.0250 O   0  0  0  0  0  0  0  0  0  0  0  0
    1.2890   51.8330  -20.1880 N   0  0  0  0  0  0  0  0  0  0  0  0
    2.1730   51.3360  -20.0810 H   0  0  0  0  0  0  0  0  0  0  0  0
    0.8750   52.1630  -21.4950 C   0  0  0  0  0  0  0  0  0  0  0  0
    0.0160   51.2460  -22.1190 C   0  0  0  0  0  0  0  0  0  0  0  0
   -0.3710   50.1140  -21.4630 F   0  0  0  0  0  0  0  0  0  0  0  0
   -0.4330   51.5050  -23.4050 C   0  0  0  0  0  0  0  0  0  0  0  0
   -0.0440   52.6390  -24.0600 C   0  0  0  0  0  0  0  0  0  0  0  0
    0.8000   53.5330  -23.4380 C   0  0  0  0  0  0  0  0  0  0  0  0
    1.2680   53.3130  -22.1610 C   0  0  0  0  0  0  0  0  0  0  0  0
    2.0920   54.1530  -21.5130 F   0  0  0  0  0  0  0  0  0  0  0  0
   -4.1830   50.4290  -17.2420 N   0  0  0  0  0  0  0  0  0  0  0  0
   -4.9770   51.0700  -17.2450 H   0  0  0  0  0  0  0  0  0  0  0  0
   -3.9770   49.5900  -18.3720 C   0  0  0  0  0  0  0  0  0  0  0  0
   -4.0700   48.2110  -18.3110 C   0  0  0  0  0  0  0  0  0  0  0  0
   -3.8560   47.4960  -19.4600 C   0  0  0  0  0  0  0  0  0  0  0  0
   -3.5590   48.1260  -20.6440 C   0  0  0  0  0  0  0  0  0  0  0  0
   -3.4610   49.4970  -20.7340 C   0  0  0  0  0  0  0  0  0  0  0  0
   -3.6760   50.2120  -19.5760 C   0  0  0  0  0  0  0  0  0  0  0  0
   -4.3720   47.6550  -17.0840 O   0  0  0  0  0  0  0  0  0  0  0  0
   -4.1250   46.2700  -16.9180 C   0  0  0  0  0  0  0  0  0  0  0  0
   -3.3480   47.3360  -21.8150 N   0  0  0  0  0  0  0  0  0  0  0  0
   -2.1730   47.4730  -22.6540 C   0  0  0  0  0  0  0  0  0  0  0  0
   -2.4310   46.7430  -23.9480 C   0  0  0  0  0  0  0  0  0  0  0  0
   -3.7730   47.1320  -24.4720 C   0  0  1  0  0  0  0  0  0  0  0  0
   -4.9080   46.7970  -23.5340 C   0  0  0  0  0  0  0  0  0  0  0  0
   -4.3250   46.3410  -22.2160 C   0  0  0  0  0  0  0  0  0  0  0  0
   -3.8560   48.4990  -24.9160 N   0  0  0  0  0  0  0  0  0  0  0  0
   -3.6760   48.5320  -26.3490 C   0  0  0  0  0  0  0  0  0  0  0  0
   -3.6030   49.9800  -26.7790 C   0  0  0  0  0  0  0  0  0  0  0  0
   -3.1090   50.7840  -25.5930 C   0  0  0  0  0  0  0  0  0  0  0  0
   -4.2940   51.3920  -24.8840 C   0  0  0  0  0  0  0  0  0  0  0  0
   -5.0340   50.4260  -24.0170 C   0  0  0  0  0  0  0  0  0  0  0  0
   -5.1480   49.0340  -24.6060 C   0  0  0  0  0  0  0  0  0  0  0  0
   -1.1912   50.5080  -13.0758 H   0  0  0  0  0  0  0  0  0  0  0  0
   -3.0692   51.9989  -13.2775 H   0  0  0  0  0  0  0  0  0  0  0  0
    2.2086   45.3782  -13.8137 H   0  0  0  0  0  0  0  0  0  0  0  0
    0.5747   44.7786  -12.1829 H   0  0  0  0  0  0  0  0  0  0  0  0
   -1.7790   44.9265  -12.7014 H   0  0  0  0  0  0  0  0  0  0  0  0
   -2.2052   47.1164  -13.6153 H   0  0  0  0  0  0  0  0  0  0  0  0
    0.1195   49.9724  -17.5412 H   0  0  0  0  0  0  0  0  0  0  0  0
    2.2948   53.5065  -17.5226 H   0  0  0  0  0  0  0  0  0  0  0  0
    3.2477   52.9145  -15.3782 H   0  0  0  0  0  0  0  0  0  0  0  0
    2.6144   50.8256  -14.3346 H   0  0  0  0  0  0  0  0  0  0  0  0
   -1.0658   50.8361  -23.8709 H   0  0  0  0  0  0  0  0  0  0  0  0
   -0.3811   52.8254  -25.0174 H   0  0  0  0  0  0  0  0  0  0  0  0
    1.0883   54.3872  -23.9403 H   0  0  0  0  0  0  0  0  0  0  0  0
   -3.9190   46.4662  -19.4355 H   0  0  0  0  0  0  0  0  0  0  0  0
   -3.2374   49.9660  -21.6257 H   0  0  0  0  0  0  0  0  0  0  0  0
   -3.6113   51.2416  -19.6046 H   0  0  0  0  0  0  0  0  0  0  0  0
   -4.4024   45.9744  -15.9278 H   0  0  0  0  0  0  0  0  0  0  0  0
   -3.0846   46.0724  -17.0709 H   0  0  0  0  0  0  0  0  0  0  0  0
   -4.7015   45.7171  -17.6299 H   0  0  0  0  0  0  0  0  0  0  0  0
   -1.9883   48.5081  -22.8525 H   0  0  0  0  0  0  0  0  0  0  0  0
   -1.3169   47.0614  -22.1615 H   0  0  0  0  0  0  0  0  0  0  0  0
   -1.6785   47.0042  -24.6624 H   0  0  0  0  0  0  0  0  0  0  0  0
   -2.4044   45.6872  -23.7765 H   0  0  0  0  0  0  0  0  0  0  0  0
   -3.8910   46.5202  -25.3418 H   0  0  0  0  0  0  0  0  0  0  0  0
   -5.5043   46.0144  -23.9545 H   0  0  0  0  0  0  0  0  0  0  0  0
   -5.5241   47.6587  -23.3829 H   0  0  0  0  0  0  0  0  0  0  0  0
   -3.8518   45.3886  -22.3338 H   0  0  0  0  0  0  0  0  0  0  0  0
   -5.0907   46.2389  -21.4756 H   0  0  0  0  0  0  0  0  0  0  0  0
   -2.7691   48.0291  -26.6125 H   0  0  0  0  0  0  0  0  0  0  0  0
   -4.4917   48.0406  -26.8369 H   0  0  0  0  0  0  0  0  0  0  0  0
   -4.5728   50.3227  -27.0740 H   0  0  0  0  0  0  0  0  0  0  0  0
   -2.9410   50.0924  -27.6121 H   0  0  0  0  0  0  0  0  0  0  0  0
   -2.4569   51.5612  -25.9330 H   0  0  0  0  0  0  0  0  0  0  0  0
   -2.5741   50.1458  -24.9211 H   0  0  0  0  0  0  0  0  0  0  0  0
   -4.9705   51.7717  -25.6209 H   0  0  0  0  0  0  0  0  0  0  0  0
   -3.9152   52.1610  -24.2437 H   0  0  0  0  0  0  0  0  0  0  0  0
   -6.0214   50.8056  -23.8563 H   0  0  0  0  0  0  0  0  0  0  0  0
   -4.4762   50.3339  -23.1086 H   0  0  0  0  0  0  0  0  0  0  0  0
   -5.6311   48.3933  -23.8982 H   0  0  0  0  0  0  0  0  0  0  0  0
   -5.7179   49.0925  -25.5097 H   0  0  0  0  0  0  0  0  0  0  0  0
  1 37  1  6  0  0  0
  1  2  1  0  0  0  0
  1  7  1  0  0  0  0
  2  4  1  0  0  0  0
  3  2  1  0  0  0  0
  4  9  1  6  0  0  0
  4  5  1  0  0  0  0
  5 60  1  0  0  0  0
  6  5  2  0  0  0  0
  6 61  1  0  0  0  0
  7  6  1  0  0  0  0
  8  7  1  0  0  0  0
  9 15  1  0  0  0  0
 10 11  1  0  0  0  0
 10  9  2  0  0  0  0
 11 12  1  0  0  0  0
 12 15  1  0  0  0  0
 12 14  2  0  0  0  0
 13 11  1  0  0  0  0
 14 16  1  0  0  0  0
 14 62  1  0  0  0  0
 15 18  1  0  0  0  0
 16 17  1  0  0  0  0
 16 63  1  0  0  0  0
 17 64  1  0  0  0  0
 18 17  2  0  0  0  0
 18 65  1  0  0  0  0
 19 24  2  0  0  0  0
 19 10  1  0  0  0  0
 20 19  1  0  0  0  0
 20 66  1  0  0  0  0
 21 20  2  0  0  0  0
 21 22  1  0  0  0  0
 22 23  2  0  0  0  0
 22 67  1  0  0  0  0
 23 24  1  0  0  0  0
 23 68  1  0  0  0  0
 24 69  1  0  0  0  0
 25 21  1  0  0  0  0
 26 25  2  0  0  0  0
 27 28  1  0  0  0  0
 27 25  1  0  0  0  0
 29 27  1  0  0  0  0
 30 29  1  0  0  0  0
 30 31  1  0  0  0  0
 32 30  2  0  0  0  0
 32 70  1  0  0  0  0
 33 34  2  0  0  0  0
 33 32  1  0  0  0  0
 33 71  1  0  0  0  0
 34 35  1  0  0  0  0
 34 72  1  0  0  0  0
 35 36  1  0  0  0  0
 35 29  2  0  0  0  0
 38 37  1  0  0  0  0
 39 40  1  0  0  0  0
 39 37  1  0  0  0  0
 40 45  1  0  0  0  0
 41 40  2  0  0  0  0
 41 73  1  0  0  0  0
 42 41  1  0  0  0  0
 43 42  2  0  0  0  0
 43 44  1  0  0  0  0
 43 74  1  0  0  0  0
 44 39  2  0  0  0  0
 44 75  1  0  0  0  0
 45 46  1  0  0  0  0
 46 76  1  0  0  0  0
 46 77  1  0  0  0  0
 46 78  1  0  0  0  0
 47 42  1  0  0  0  0
 48 47  1  0  0  0  0
 48 79  1  0  0  0  0
 48 80  1  0  0  0  0
 49 48  1  0  0  0  0
 49 81  1  0  0  0  0
 49 82  1  0  0  0  0
 50 49  1  0  0  0  0
 50 51  1  0  0  0  0
 50 83  1  6  0  0  0
 51 52  1  0  0  0  0
 51 84  1  0  0  0  0
 51 85  1  0  0  0  0
 52 47  1  0  0  0  0
 52 86  1  0  0  0  0
 52 87  1  0  0  0  0
 53 59  1  0  0  0  0
 53 50  1  0  0  0  0
 54 53  1  0  0  0  0
 54 88  1  0  0  0  0
 54 89  1  0  0  0  0
 55 54  1  0  0  0  0
 55 56  1  0  0  0  0
 55 90  1  0  0  0  0
 55 91  1  0  0  0  0
 56 57  1  0  0  0  0
 56 92  1  0  0  0  0
 56 93  1  0  0  0  0
 57 58  1  0  0  0  0
 57 94  1  0  0  0  0
 57 95  1  0  0  0  0
 58 96  1  0  0  0  0
 58 97  1  0  0  0  0
 59 58  1  0  0  0  0
 59 98  1  0  0  0  0
 59 99  1  0  0  0  0
M  END
>  <REMARK>
 VINA RESULT:      -9.7      2.461      3.937
  9 active torsions:
  status: ('A' for Active; 'I' for Inactive)
    1  A    between atoms: O_2  and  C_3 
    2  A    between atoms: C_4  and  N_5 
    3  A    between atoms: N_5  and  C_7 
    4  A    between atoms: C_10  and  C_11 
    5  A    between atoms: C_12  and  C_13 
    6  A    between atoms: C_15  and  C_16 
       I    between atoms: C_16  and  N_18 
    7  A    between atoms: N_18  and  C_20 
    8  A    between atoms: C_45  and  N_46 
    9  A    between atoms: C_49  and  N_50 

>  <TORSDO>
F 9

$$$$
