resistance_project/docking/8faf60323ce63d5a/P00533_WT/docked/molecule_0001_out.pdbqt
 OpenBabel09142609523D

 56 59  0  0  1  0  0  0  0  0999 V2000
   -0.0140   50.3420  -14.8240 C   0  0  1  0  0  0  0  0  0  0  0  0
    0.9270   49.8350  -13.7320 C   0  0  0  0  0  0  0  0  0  0  0  0
    2.2380   50.3790  -14.0230 N   0  0  0  0  0  0  0  0  0  0  0  0
    3.3910   49.5910  -13.6600 C   0  0  0  0  0  0  0  0  0  0  0  0
    2.4150   51.6600  -14.6510 C   0  0  1  0  0  0  0  0  0  0  0  0
    3.7410   52.1690  -14.8710 C   0  0  0  0  0  0  0  0  0  0  0  0
    4.8350   52.5720  -15.0390 N   0  0  0  0  0  0  0  0  0  0  0  0
    1.3500   52.3330  -15.0100 N   0  0  0  0  0  0  0  0  0  0  0  0
    1.4360   53.2460  -15.4590 H   0  0  0  0  0  0  0  0  0  0  0  0
    0.0980   51.7720  -14.7640 O   0  0  0  0  0  0  0  0  0  0  0  0
    0.6340   49.9510  -16.1350 C   0  0  0  0  0  0  0  0  0  0  0  0
   -0.2930   49.8820  -17.1990 O   0  0  0  0  0  0  0  0  0  0  0  0
   -0.0900   50.6080  -18.3620 C   0  0  0  0  0  0  0  0  0  0  0  0
   -0.8670   50.2640  -19.4670 C   0  0  0  0  0  0  0  0  0  0  0  0
   -0.6830   50.9760  -20.6380 C   0  0  0  0  0  0  0  0  0  0  0  0
    0.2390   52.0010  -20.7330 C   0  0  0  0  0  0  0  0  0  0  0  0
    0.4150   52.7070  -21.9090 C   0  0  0  0  0  0  0  0  0  0  0  0
    1.0110   52.3440  -19.6370 C   0  0  0  0  0  0  0  0  0  0  0  0
    1.3200   53.6980  -21.9640 N   0  0  0  0  0  0  0  0  0  0  0  0
    2.0720   54.0370  -20.9090 C   0  0  0  0  0  0  0  0  0  0  0  0
    1.4390   54.2090  -22.8390 H   0  0  0  0  0  0  0  0  0  0  0  0
    1.8900   53.3420  -19.7700 N   0  0  0  0  0  0  0  0  0  0  0  0
    2.4570   53.5920  -18.9610 H   0  0  0  0  0  0  0  0  0  0  0  0
    0.8190   51.6310  -18.4780 C   0  0  0  0  0  0  0  0  0  0  0  0
   -1.7950   49.2340  -19.3760 O   0  0  0  0  0  0  0  0  0  0  0  0
   -1.7760   48.2240  -20.3630 C   0  0  0  0  0  0  0  0  0  0  0  0
   -0.3950   52.3290  -23.0180 N   0  0  0  0  0  0  0  0  0  0  0  0
   -1.3730   52.0640  -22.8990 H   0  0  0  0  0  0  0  0  0  0  0  0
    0.2300   52.3380  -24.3060 C   0  0  0  0  0  0  0  0  0  0  0  0
   -0.2900   53.1540  -25.3090 C   0  0  0  0  0  0  0  0  0  0  0  0
    0.2920   53.1860  -26.5680 C   0  0  0  0  0  0  0  0  0  0  0  0
   -0.3380   54.1940  -27.8360 Cl  0  0  0  0  0  0  0  0  0  0  0  0
    1.3990   52.3910  -26.8030 C   0  0  0  0  0  0  0  0  0  0  0  0
    2.1660   52.3970  -28.3720 Cl  0  0  0  0  0  0  0  0  0  0  0  0
    1.9380   51.5680  -25.8190 C   0  0  0  0  0  0  0  0  0  0  0  0
    1.3470   51.5420  -24.5570 C   0  0  0  0  0  0  0  0  0  0  0  0
   -1.0159   49.9794  -14.7261 H   0  0  0  0  0  0  0  0  0  0  0  0
    0.9613   48.7656  -13.7427 H   0  0  0  0  0  0  0  0  0  0  0  0
    0.5909   50.1408  -12.7633 H   0  0  0  0  0  0  0  0  0  0  0  0
    4.2823   50.1160  -13.9337 H   0  0  0  0  0  0  0  0  0  0  0  0
    3.3578   48.6528  -14.1734 H   0  0  0  0  0  0  0  0  0  0  0  0
    3.3879   49.4199  -12.6038 H   0  0  0  0  0  0  0  0  0  0  0  0
    2.9223   52.5288  -15.0154 H   0  0  0  0  0  0  0  0  0  0  0  0
    1.3814   50.6771  -16.3780 H   0  0  0  0  0  0  0  0  0  0  0  0
    1.0573   48.9763  -16.0097 H   0  0  0  0  0  0  0  0  0  0  0  0
   -0.4128   50.2594  -21.3853 H   0  0  0  0  0  0  0  0  0  0  0  0
   -1.6118   51.4989  -20.7321 H   0  0  0  0  0  0  0  0  0  0  0  0
    1.8754   55.0662  -20.6920 H   0  0  0  0  0  0  0  0  0  0  0  0
    3.0761   53.8173  -21.2064 H   0  0  0  0  0  0  0  0  0  0  0  0
    1.3871   51.8769  -17.6523 H   0  0  0  0  0  0  0  0  0  0  0  0
   -2.5444   47.5087  -20.1562 H   0  0  0  0  0  0  0  0  0  0  0  0
   -0.8236   47.7364  -20.3561 H   0  0  0  0  0  0  0  0  0  0  0  0
   -1.9456   48.6617  -21.3245 H   0  0  0  0  0  0  0  0  0  0  0  0
   -1.1163   53.7404  -25.1132 H   0  0  0  0  0  0  0  0  0  0  0  0
    2.7648   50.9843  -26.0210 H   0  0  0  0  0  0  0  0  0  0  0  0
    1.7330   50.9384  -23.8142 H   0  0  0  0  0  0  0  0  0  0  0  0
  1 10  1  0  0  0  0
  1  2  1  0  0  0  0
  1 37  1  1  0  0  0
  2 38  1  0  0  0  0
  2 39  1  0  0  0  0
  3  2  1  0  0  0  0
  3  4  1  0  0  0  0
  4 40  1  0  0  0  0
  4 41  1  0  0  0  0
  4 42  1  0  0  0  0
  5  3  1  0  0  0  0
  5 43  1  1  0  0  0
  6  5  1  0  0  0  0
  7  6  3  0  0  0  0
  8 10  1  0  0  0  0
  8  5  1  0  0  0  0
  9  8  1  0  0  0  0
 11  1  1  0  0  0  0
 11 44  1  0  0  0  0
 11 45  1  0  0  0  0
 12 11  1  0  0  0  0
 13 12  1  0  0  0  0
 14 25  1  0  0  0  0
 14 13  2  0  0  0  0
 15 14  1  0  0  0  0
 15 46  1  0  0  0  0
 15 47  1  0  0  0  0
 16 15  1  0  0  0  0
 16 18  1  0  0  0  0
 17 16  2  0  0  0  0
 18 24  2  0  0  0  0
 19 17  1  0  0  0  0
 19 20  1  0  0  0  0
 20 22  1  0  0  0  0
 20 48  1  0  0  0  0
 20 49  1  0  0  0  0
 21 19  1  0  0  0  0
 22 18  1  0  0  0  0
 22 23  1  0  0  0  0
 24 13  1  0  0  0  0
 24 50  1  0  0  0  0
 26 25  1  0  0  0  0
 26 51  1  0  0  0  0
 26 52  1  0  0  0  0
 26 53  1  0  0  0  0
 27 28  1  0  0  0  0
 27 17  1  0  0  0  0
 29 27  1  0  0  0  0
 30 29  2  0  0  0  0
 30 54  1  0  0  0  0
 31 30  1  0  0  0  0
 32 31  1  0  0  0  0
 33 31  2  0  0  0  0
 33 35  1  0  0  0  0
 34 33  1  0  0  0  0
 35 36  2  0  0  0  0
 35 55  1  0  0  0  0
 36 29  1  0  0  0  0
 36 56  1  0  0  0  0
M  END
>  <MODEL>
1

>  <REMARK>
 VINA RESULT:      -8.2      0.000      0.000
  6 active torsions:
  status: ('A' for Active; 'I' for Inactive)
    1  A    between atoms: O_2  and  C_3 
    2  A    between atoms: C_4  and  O_5 
    3  A    between atoms: O_5  and  C_6 
    4  A    between atoms: C_6  and  C_7 
    5  A    between atoms: C_24  and  N_25 
    6  A    between atoms: N_25  and  C_27 

>  <TORSDO>
F 6

$$$$
resistance_project/docking/8faf60323ce63d5a/P00533_WT/docked/molecule_0001_out.pdbqt
 OpenBabel09142609523D

 56 59  0  0  1  0  0  0  0  0999 V2000
    0.8440   49.9100  -15.0090 C   0  0  1  0  0  0  0  0  0  0  0  0
    0.9620   50.5560  -13.6280 C   0  0  0  0  0  0  0  0  0  0  0  0
   -0.2640   51.2970  -13.4060 N   0  0  0  0  0  0  0  0  0  0  0  0
   -0.1900   52.4990  -12.6120 C   0  0  0  0  0  0  0  0  0  0  0  0
   -1.5260   50.8720  -13.9480 C   0  0  1  0  0  0  0  0  0  0  0  0
   -2.7170   51.6220  -13.6540 C   0  0  0  0  0  0  0  0  0  0  0  0
   -3.6810   52.2460  -13.4000 N   0  0  0  0  0  0  0  0  0  0  0  0
   -1.5550   49.8020  -14.7030 N   0  0  0  0  0  0  0  0  0  0  0  0
   -2.4320   49.4690  -15.1050 H   0  0  0  0  0  0  0  0  0  0  0  0
   -0.3580   49.1280  -14.9420 O   0  0  0  0  0  0  0  0  0  0  0  0
    0.5260   51.0420  -15.9620 C   0  0  0  0  0  0  0  0  0  0  0  0
   -0.2060   50.6120  -17.0900 O   0  0  0  0  0  0  0  0  0  0  0  0
    0.0070   51.1840  -18.3350 C   0  0  0  0  0  0  0  0  0  0  0  0
   -0.7500   50.6930  -19.3960 C   0  0  0  0  0  0  0  0  0  0  0  0
   -0.5540   51.2500  -20.6460 C   0  0  0  0  0  0  0  0  0  0  0  0
    0.3610   52.2640  -20.8600 C   0  0  0  0  0  0  0  0  0  0  0  0
    0.5490   52.8130  -22.1150 C   0  0  0  0  0  0  0  0  0  0  0  0
    1.1140   52.7520  -19.8070 C   0  0  0  0  0  0  0  0  0  0  0  0
    1.4480   53.7980  -22.2850 N   0  0  0  0  0  0  0  0  0  0  0  0
    2.1810   54.2770  -21.2710 C   0  0  0  0  0  0  0  0  0  0  0  0
    1.5750   54.1920  -23.2160 H   0  0  0  0  0  0  0  0  0  0  0  0
    1.9870   53.7330  -20.0560 N   0  0  0  0  0  0  0  0  0  0  0  0
    2.5410   54.0900  -19.2770 H   0  0  0  0  0  0  0  0  0  0  0  0
    0.9110   52.1920  -18.5690 C   0  0  0  0  0  0  0  0  0  0  0  0
   -1.6710   49.6750  -19.1860 O   0  0  0  0  0  0  0  0  0  0  0  0
   -3.0420   49.9610  -19.3690 C   0  0  0  0  0  0  0  0  0  0  0  0
   -0.2410   52.2880  -23.1760 N   0  0  0  0  0  0  0  0  0  0  0  0
   -1.1690   51.8980  -23.0100 H   0  0  0  0  0  0  0  0  0  0  0  0
    0.3300   52.3310  -24.4890 C   0  0  0  0  0  0  0  0  0  0  0  0
   -0.2010   53.2060  -25.4340 C   0  0  0  0  0  0  0  0  0  0  0  0
    0.3290   53.2730  -26.7140 C   0  0  0  0  0  0  0  0  0  0  0  0
   -0.3180   54.3550  -27.9110 Cl  0  0  0  0  0  0  0  0  0  0  0  0
    1.3960   52.4530  -27.0290 C   0  0  0  0  0  0  0  0  0  0  0  0
    2.0980   52.5020  -28.6280 Cl  0  0  0  0  0  0  0  0  0  0  0  0
    1.9470   51.5710  -26.1040 C   0  0  0  0  0  0  0  0  0  0  0  0
    1.4080   51.5110  -24.8200 C   0  0  0  0  0  0  0  0  0  0  0  0
    1.7106   49.3512  -15.2949 H   0  0  0  0  0  0  0  0  0  0  0  0
    1.8023   51.2178  -13.6015 H   0  0  0  0  0  0  0  0  0  0  0  0
    1.1060   49.8157  -12.8689 H   0  0  0  0  0  0  0  0  0  0  0  0
   -1.1638   52.9355  -12.5341 H   0  0  0  0  0  0  0  0  0  0  0  0
    0.4762   53.1942  -13.0786 H   0  0  0  0  0  0  0  0  0  0  0  0
    0.1724   52.2589  -11.6343 H   0  0  0  0  0  0  0  0  0  0  0  0
   -2.5780   50.8587  -14.1431 H   0  0  0  0  0  0  0  0  0  0  0  0
   -0.0493   51.7780  -15.4402 H   0  0  0  0  0  0  0  0  0  0  0  0
    1.4547   51.4423  -16.3114 H   0  0  0  0  0  0  0  0  0  0  0  0
   -0.2664   50.4459  -21.2907 H   0  0  0  0  0  0  0  0  0  0  0  0
   -1.4855   51.7471  -20.8195 H   0  0  0  0  0  0  0  0  0  0  0  0
    1.9731   55.3236  -21.1910 H   0  0  0  0  0  0  0  0  0  0  0  0
    3.1912   54.0304  -21.5232 H   0  0  0  0  0  0  0  0  0  0  0  0
    1.4658   52.5465  -17.7743 H   0  0  0  0  0  0  0  0  0  0  0  0
   -3.6192   49.0820  -19.1711 H   0  0  0  0  0  0  0  0  0  0  0  0
   -3.2088   50.2777  -20.3774 H   0  0  0  0  0  0  0  0  0  0  0  0
   -3.3366   50.7399  -18.6972 H   0  0  0  0  0  0  0  0  0  0  0  0
   -0.9973   53.8109  -25.1789 H   0  0  0  0  0  0  0  0  0  0  0  0
    2.7439   50.9696  -26.3653 H   0  0  0  0  0  0  0  0  0  0  0  0
    1.8038   50.8646  -24.1197 H   0  0  0  0  0  0  0  0  0  0  0  0
  1 10  1  0  0  0  0
  1  2  1  0  0  0  0
  1 37  1  6  0  0  0
  2  3  1  0  0  0  0
  2 38  1  0  0  0  0
  2 39  1  0  0  0  0
  3  4  1  0  0  0  0
  4 40  1  0  0  0  0
  4 41  1  0  0  0  0
  4 42  1  0  0  0  0
  5  6  1  0  0  0  0
  5  3  1  0  0  0  0
  5 43  1  1  0  0  0
  6  7  3  0  0  0  0
  8  5  1  0  0  0  0
  9  8  1  0  0  0  0
 10  8  1  0  0  0  0
 11  1  1  0  0  0  0
 11 44  1  0  0  0  0
 11 45  1  0  0  0  0
 12 11  1  0  0  0  0
 13 12  1  0  0  0  0
 14 25  1  0  0  0  0
 14 13  2  0  0  0  0
 15 14  1  0  0  0  0
 15 46  1  0  0  0  0
 15 47  1  0  0  0  0
 16 15  1  0  0  0  0
 16 18  1  0  0  0  0
 17 16  2  0  0  0  0
 18 24  2  0  0  0  0
 19 17  1  0  0  0  0
 19 20  1  0  0  0  0
 20 22  1  0  0  0  0
 20 48  1  0  0  0  0
 20 49  1  0  0  0  0
 21 19  1  0  0  0  0
 22 18  1  0  0  0  0
 22 23  1  0  0  0  0
 24 13  1  0  0  0  0
 24 50  1  0  0  0  0
 26 25  1  0  0  0  0
 26 51  1  0  0  0  0
 26 52  1  0  0  0  0
 26 53  1  0  0  0  0
 27 28  1  0  0  0  0
 27 17  1  0  0  0  0
 29 27  1  0  0  0  0
 30 29  2  0  0  0  0
 30 54  1  0  0  0  0
 31 30  1  0  0  0  0
 32 31  1  0  0  0  0
 33 31  2  0  0  0  0
 33 35  1  0  0  0  0
 34 33  1  0  0  0  0
 35 36  2  0  0  0  0
 35 55  1  0  0  0  0
 36 29  1  0  0  0  0
 36 56  1  0  0  0  0
M  END
>  <REMARK>
 VINA RESULT:      -7.9      1.665      2.494
  6 active torsions:
  status: ('A' for Active; 'I' for Inactive)
    1  A    between atoms: O_2  and  C_3 
    2  A    between atoms: C_4  and  O_5 
    3  A    between atoms: O_5  and  C_6 
    4  A    between atoms: C_6  and  C_7 
    5  A    between atoms: C_24  and  N_25 
    6  A    between atoms: N_25  and  C_27 

>  <TORSDO>
F 6

$$$$
resistance_project/docking/8faf60323ce63d5a/P00533_WT/docked/molecule_0001_out.pdbqt
 OpenBabel09142609523D

 56 59  0  0  1  0  0  0  0  0999 V2000
   -3.1150   47.1430  -21.6410 C   0  0  1  0  0  0  0  0  0  0  0  0
   -4.0390   48.1610  -20.9720 C   0  0  0  0  0  0  0  0  0  0  0  0
   -3.7280   49.4530  -21.5510 N   0  0  0  0  0  0  0  0  0  0  0  0
   -3.8750   50.6190  -20.7140 C   0  0  0  0  0  0  0  0  0  0  0  0
   -3.2860   49.5970  -22.9110 C   0  0  2  0  0  0  0  0  0  0  0  0
   -3.0390   50.9090  -23.4450 C   0  0  0  0  0  0  0  0  0  0  0  0
   -2.8450   51.9910  -23.8660 N   0  0  0  0  0  0  0  0  0  0  0  0
   -3.1190   48.5180  -23.6330 N   0  0  0  0  0  0  0  0  0  0  0  0
   -2.8070   48.5800  -24.6030 H   0  0  0  0  0  0  0  0  0  0  0  0
   -3.3800   47.2810  -23.0450 O   0  0  0  0  0  0  0  0  0  0  0  0
   -1.7130   47.6790  -21.4490 C   0  0  0  0  0  0  0  0  0  0  0  0
   -1.3770   47.8460  -20.0870 O   0  0  0  0  0  0  0  0  0  0  0  0
   -0.7220   48.9890  -19.6530 C   0  0  0  0  0  0  0  0  0  0  0  0
   -0.7620   49.2620  -18.2870 C   0  0  0  0  0  0  0  0  0  0  0  0
   -0.1160   50.3950  -17.8320 C   0  0  0  0  0  0  0  0  0  0  0  0
    0.5560   51.2470  -18.6890 C   0  0  0  0  0  0  0  0  0  0  0  0
    1.2000   52.3790  -18.2230 C   0  0  0  0  0  0  0  0  0  0  0  0
    0.5970   50.9780  -20.0460 C   0  0  0  0  0  0  0  0  0  0  0  0
    1.8430   53.1840  -19.0850 N   0  0  0  0  0  0  0  0  0  0  0  0
    1.8870   52.9310  -20.4000 C   0  0  0  0  0  0  0  0  0  0  0  0
    2.3130   54.0150  -18.7260 H   0  0  0  0  0  0  0  0  0  0  0  0
    1.2570   51.8260  -20.8390 N   0  0  0  0  0  0  0  0  0  0  0  0
    1.2840   51.6250  -21.8380 H   0  0  0  0  0  0  0  0  0  0  0  0
   -0.0490   49.8480  -20.4860 C   0  0  0  0  0  0  0  0  0  0  0  0
   -1.4360   48.4080  -17.4230 O   0  0  0  0  0  0  0  0  0  0  0  0
   -2.7740   48.7110  -17.0870 C   0  0  0  0  0  0  0  0  0  0  0  0
    1.1390   52.6280  -16.8220 N   0  0  0  0  0  0  0  0  0  0  0  0
    0.3000   53.0070  -16.3830 H   0  0  0  0  0  0  0  0  0  0  0  0
    2.3120   52.3190  -16.0600 C   0  0  0  0  0  0  0  0  0  0  0  0
    2.1970   51.5140  -14.9290 C   0  0  0  0  0  0  0  0  0  0  0  0
    3.3130   51.1960  -14.1700 C   0  0  0  0  0  0  0  0  0  0  0  0
    3.1950   50.1950  -12.7530 Cl  0  0  0  0  0  0  0  0  0  0  0  0
    4.5410   51.6960  -14.5620 C   0  0  0  0  0  0  0  0  0  0  0  0
    5.9750   51.3230  -13.6370 Cl  0  0  0  0  0  0  0  0  0  0  0  0
    4.6840   52.5020  -15.6870 C   0  0  0  0  0  0  0  0  0  0  0  0
    3.5570   52.8160  -16.4450 C   0  0  0  0  0  0  0  0  0  0  0  0
   -3.2378   46.1463  -21.2716 H   0  0  0  0  0  0  0  0  0  0  0  0
   -3.8646   48.1788  -19.9165 H   0  0  0  0  0  0  0  0  0  0  0  0
   -5.0667   47.9076  -21.1285 H   0  0  0  0  0  0  0  0  0  0  0  0
   -3.6124   51.4937  -21.2715 H   0  0  0  0  0  0  0  0  0  0  0  0
   -3.2312   50.5313  -19.8639 H   0  0  0  0  0  0  0  0  0  0  0  0
   -4.8905   50.6968  -20.3858 H   0  0  0  0  0  0  0  0  0  0  0  0
   -2.9677   50.0663  -23.8184 H   0  0  0  0  0  0  0  0  0  0  0  0
   -1.6385   48.6272  -21.9391 H   0  0  0  0  0  0  0  0  0  0  0  0
   -1.0333   46.9651  -21.8653 H   0  0  0  0  0  0  0  0  0  0  0  0
   -0.8597   50.9879  -17.3418 H   0  0  0  0  0  0  0  0  0  0  0  0
    0.6828   49.9818  -17.2523 H   0  0  0  0  0  0  0  0  0  0  0  0
    1.4524   53.7695  -20.9030 H   0  0  0  0  0  0  0  0  0  0  0  0
    2.9217   52.7584  -20.6112 H   0  0  0  0  0  0  0  0  0  0  0  0
   -0.0272   49.6338  -21.4953 H   0  0  0  0  0  0  0  0  0  0  0  0
   -3.1515   47.9655  -16.4187 H   0  0  0  0  0  0  0  0  0  0  0  0
   -3.3698   48.7280  -17.9756 H   0  0  0  0  0  0  0  0  0  0  0  0
   -2.8143   49.6690  -16.6122 H   0  0  0  0  0  0  0  0  0  0  0  0
    1.2714   51.1504  -14.6531 H   0  0  0  0  0  0  0  0  0  0  0  0
    5.6125   52.8628  -15.9569 H   0  0  0  0  0  0  0  0  0  0  0  0
    3.6431   53.4110  -17.2838 H   0  0  0  0  0  0  0  0  0  0  0  0
  1 11  1  0  0  0  0
  1  2  1  0  0  0  0
  1 37  1  1  0  0  0
  2 38  1  0  0  0  0
  2 39  1  0  0  0  0
  3  2  1  0  0  0  0
  3  4  1  0  0  0  0
  4 40  1  0  0  0  0
  4 41  1  0  0  0  0
  4 42  1  0  0  0  0
  5  3  1  0  0  0  0
  5 43  1  1  0  0  0
  6  5  1  0  0  0  0
  7  6  3  0  0  0  0
  8 10  1  0  0  0  0
  8  5  1  0  0  0  0
  9  8  1  0  0  0  0
 10  1  1  0  0  0  0
 11 12  1  0  0  0  0
 11 44  1  0  0  0  0
 11 45  1  0  0  0  0
 12 13  1  0  0  0  0
 13 14  2  0  0  0  0
 14 15  1  0  0  0  0
 14 25  1  0  0  0  0
 15 46  1  0  0  0  0
 15 47  1  0  0  0  0
 16 17  2  0  0  0  0
 16 15  1  0  0  0  0
 17 27  1  0  0  0  0
 18 16  1  0  0  0  0
 19 21  1  0  0  0  0
 19 17  1  0  0  0  0
 20 19  1  0  0  0  0
 20 48  1  0  0  0  0
 20 49  1  0  0  0  0
 22 20  1  0  0  0  0
 22 18  1  0  0  0  0
 23 22  1  0  0  0  0
 24 18  2  0  0  0  0
 24 13  1  0  0  0  0
 24 50  1  0  0  0  0
 25 26  1  0  0  0  0
 26 51  1  0  0  0  0
 26 52  1  0  0  0  0
 26 53  1  0  0  0  0
 27 28  1  0  0  0  0
 27 29  1  0  0  0  0
 29 30  1  0  0  0  0
 30 31  2  0  0  0  0
 30 54  1  0  0  0  0
 31 32  1  0  0  0  0
 33 31  1  0  0  0  0
 33 34  1  0  0  0  0
 35 33  2  0  0  0  0
 35 55  1  0  0  0  0
 36 29  2  0  0  0  0
 36 35  1  0  0  0  0
 36 56  1  0  0  0  0
M  END
>  <REMARK>
 VINA RESULT:      -7.8      4.774      8.428
  6 active torsions:
  status: ('A' for Active; 'I' for Inactive)
    1  A    between atoms: O_2  and  C_3 
    2  A    between atoms: C_4  and  O_5 
    3  A    between atoms: O_5  and  C_6 
    4  A    between atoms: C_6  and  C_7 
    5  A    between atoms: C_24  and  N_25 
    6  A    between atoms: N_25  and  C_27 

>  <TORSDO>
F 6

$$$$
resistance_project/docking/8faf60323ce63d5a/P00533_WT/docked/molecule_0001_out.pdbqt
 OpenBabel09142609523D

 56 59  0  0  1  0  0  0  0  0999 V2000
    0.4990   49.3240  -15.9000 C   0  0  1  0  0  0  0  0  0  0  0  0
    0.8670   49.9170  -14.5400 C   0  0  0  0  0  0  0  0  0  0  0  0
   -0.2360   50.7680  -14.1410 N   0  0  0  0  0  0  0  0  0  0  0  0
    0.0660   51.9350  -13.3480 C   0  0  0  0  0  0  0  0  0  0  0  0
   -1.5960   50.4840  -14.5100 C   0  0  1  0  0  0  0  0  0  0  0  0
   -2.6540   51.3400  -14.0440 C   0  0  0  0  0  0  0  0  0  0  0  0
   -3.5080   52.0480  -13.6510 N   0  0  0  0  0  0  0  0  0  0  0  0
   -1.8350   49.4440  -15.2680 N   0  0  0  0  0  0  0  0  0  0  0  0
   -2.7880   49.2100  -15.5500 H   0  0  0  0  0  0  0  0  0  0  0  0
   -0.7560   48.6620  -15.6790 O   0  0  0  0  0  0  0  0  0  0  0  0
    0.1700   50.5080  -16.7840 C   0  0  0  0  0  0  0  0  0  0  0  0
    0.9100   50.5080  -17.9870 O   0  0  0  0  0  0  0  0  0  0  0  0
    0.2700   50.5990  -19.2140 C   0  0  0  0  0  0  0  0  0  0  0  0
    0.4060   51.7980  -19.9120 C   0  0  0  0  0  0  0  0  0  0  0  0
   -0.2230   51.9120  -21.1370 C   0  0  0  0  0  0  0  0  0  0  0  0
   -0.9710   50.8800  -21.6730 C   0  0  0  0  0  0  0  0  0  0  0  0
   -1.5970   51.0050  -22.9000 C   0  0  0  0  0  0  0  0  0  0  0  0
   -1.1080   49.6900  -20.9810 C   0  0  0  0  0  0  0  0  0  0  0  0
   -2.3160   49.9810  -23.3900 N   0  0  0  0  0  0  0  0  0  0  0  0
   -2.4540   48.8250  -22.7270 C   0  0  0  0  0  0  0  0  0  0  0  0
   -2.7720   50.0890  -24.2960 H   0  0  0  0  0  0  0  0  0  0  0  0
   -1.8390   48.7180  -21.5350 N   0  0  0  0  0  0  0  0  0  0  0  0
   -1.9380   47.8420  -21.0220 H   0  0  0  0  0  0  0  0  0  0  0  0
   -0.4780   49.5880  -19.7650 C   0  0  0  0  0  0  0  0  0  0  0  0
    1.1580   52.8370  -19.3770 O   0  0  0  0  0  0  0  0  0  0  0  0
    2.1800   53.4040  -20.1690 C   0  0  0  0  0  0  0  0  0  0  0  0
   -1.4370   52.2430  -23.5850 N   0  0  0  0  0  0  0  0  0  0  0  0
   -1.9610   53.0750  -23.3150 H   0  0  0  0  0  0  0  0  0  0  0  0
   -0.5050   52.2620  -24.6720 C   0  0  0  0  0  0  0  0  0  0  0  0
   -0.7270   53.1240  -25.7450 C   0  0  0  0  0  0  0  0  0  0  0  0
    0.1560   53.1670  -26.8130 C   0  0  0  0  0  0  0  0  0  0  0  0
   -0.1000   54.2320  -28.1630 Cl  0  0  0  0  0  0  0  0  0  0  0  0
    1.2610   52.3380  -26.7880 C   0  0  0  0  0  0  0  0  0  0  0  0
    2.4020   52.3570  -28.1110 Cl  0  0  0  0  0  0  0  0  0  0  0  0
    1.5080   51.4680  -25.7300 C   0  0  0  0  0  0  0  0  0  0  0  0
    0.6150   51.4320  -24.6600 C   0  0  0  0  0  0  0  0  0  0  0  0
    1.2581   48.6912  -16.3102 H   0  0  0  0  0  0  0  0  0  0  0  0
    1.7656   50.4923  -14.6202 H   0  0  0  0  0  0  0  0  0  0  0  0
    1.0367   49.1454  -13.8184 H   0  0  0  0  0  0  0  0  0  0  0  0
    1.1204   51.9838  -13.1723 H   0  0  0  0  0  0  0  0  0  0  0  0
   -0.4490   51.8733  -12.4121 H   0  0  0  0  0  0  0  0  0  0  0  0
   -0.2494   52.8133  -13.8715 H   0  0  0  0  0  0  0  0  0  0  0  0
   -2.6619   50.5568  -14.5688 H   0  0  0  0  0  0  0  0  0  0  0  0
   -0.8726   50.4786  -17.0227 H   0  0  0  0  0  0  0  0  0  0  0  0
    0.4258   51.3964  -16.2454 H   0  0  0  0  0  0  0  0  0  0  0  0
   -0.8823   52.7511  -21.0588 H   0  0  0  0  0  0  0  0  0  0  0  0
    0.6054   51.9647  -21.8121 H   0  0  0  0  0  0  0  0  0  0  0  0
   -2.0736   48.0471  -23.3555 H   0  0  0  0  0  0  0  0  0  0  0  0
   -3.4983   48.7608  -22.5030 H   0  0  0  0  0  0  0  0  0  0  0  0
   -0.5716   48.7057  -19.2380 H   0  0  0  0  0  0  0  0  0  0  0  0
    2.6636   54.1856  -19.6212 H   0  0  0  0  0  0  0  0  0  0  0  0
    1.7552   53.8065  -21.0648 H   0  0  0  0  0  0  0  0  0  0  0  0
    2.8957   52.6497  -20.4213 H   0  0  0  0  0  0  0  0  0  0  0  0
   -1.5575   53.7366  -25.7443 H   0  0  0  0  0  0  0  0  0  0  0  0
    2.3405   50.8581  -25.7375 H   0  0  0  0  0  0  0  0  0  0  0  0
    0.7819   50.7956  -23.8649 H   0  0  0  0  0  0  0  0  0  0  0  0
  1 10  1  0  0  0  0
  1  2  1  0  0  0  0
  1 37  1  6  0  0  0
  2  3  1  0  0  0  0
  2 38  1  0  0  0  0
  2 39  1  0  0  0  0
  3  4  1  0  0  0  0
  4 40  1  0  0  0  0
  4 41  1  0  0  0  0
  4 42  1  0  0  0  0
  5  3  1  0  0  0  0
  5  6  1  0  0  0  0
  5 43  1  1  0  0  0
  6  7  3  0  0  0  0
  8  5  1  0  0  0  0
  9  8  1  0  0  0  0
 10  8  1  0  0  0  0
 11  1  1  0  0  0  0
 11 44  1  0  0  0  0
 11 45  1  0  0  0  0
 12 11  1  0  0  0  0
 13 12  1  0  0  0  0
 14 25  1  0  0  0  0
 14 13  2  0  0  0  0
 15 14  1  0  0  0  0
 15 46  1  0  0  0  0
 15 47  1  0  0  0  0
 16 15  1  0  0  0  0
 16 18  1  0  0  0  0
 17 16  2  0  0  0  0
 18 24  2  0  0  0  0
 19 17  1  0  0  0  0
 19 20  1  0  0  0  0
 20 22  1  0  0  0  0
 20 48  1  0  0  0  0
 20 49  1  0  0  0  0
 21 19  1  0  0  0  0
 22 23  1  0  0  0  0
 22 18  1  0  0  0  0
 24 13  1  0  0  0  0
 24 50  1  0  0  0  0
 26 25  1  0  0  0  0
 26 51  1  0  0  0  0
 26 52  1  0  0  0  0
 26 53  1  0  0  0  0
 27 28  1  0  0  0  0
 27 17  1  0  0  0  0
 29 36  1  0  0  0  0
 29 27  1  0  0  0  0
 30 29  2  0  0  0  0
 30 54  1  0  0  0  0
 31 33  2  0  0  0  0
 31 30  1  0  0  0  0
 32 31  1  0  0  0  0
 33 35  1  0  0  0  0
 34 33  1  0  0  0  0
 35 36  2  0  0  0  0
 35 55  1  0  0  0  0
 36 56  1  0  0  0  0
M  END
>  <REMARK>
 VINA RESULT:      -7.8      2.156      3.605
  6 active torsions:
  status: ('A' for Active; 'I' for Inactive)
    1  A    between atoms: O_2  and  C_3 
    2  A    between atoms: C_4  and  O_5 
    3  A    between atoms: O_5  and  C_6 
    4  A    between atoms: C_6  and  C_7 
    5  A    between atoms: C_24  and  N_25 
    6  A    between atoms: N_25  and  C_27 

>  <TORSDO>
F 6

$$$$
resistance_project/docking/8faf60323ce63d5a/P00533_WT/docked/molecule_0001_out.pdbqt
 OpenBabel09142609523D

 56 59  0  0  1  0  0  0  0  0999 V2000
   -1.6260   50.5830  -13.5770 C   0  0  1  0  0  0  0  0  0  0  0  0
   -1.1330   50.1520  -12.1950 C   0  0  0  0  0  0  0  0  0  0  0  0
   -0.7910   51.3640  -11.4760 N   0  0  0  0  0  0  0  0  0  0  0  0
    0.2870   51.2970  -10.5190 C   0  0  0  0  0  0  0  0  0  0  0  0
   -1.4860   52.6040  -11.6890 C   0  0  1  0  0  0  0  0  0  0  0  0
   -1.1330   53.7610  -10.9110 C   0  0  0  0  0  0  0  0  0  0  0  0
   -0.8340   54.6960  -10.2620 N   0  0  0  0  0  0  0  0  0  0  0  0
   -2.4290   52.6450  -12.5960 N   0  0  0  0  0  0  0  0  0  0  0  0
   -2.9450   53.5080  -12.7750 H   0  0  0  0  0  0  0  0  0  0  0  0
   -2.7130   51.4820  -13.3090 O   0  0  0  0  0  0  0  0  0  0  0  0
   -0.5270   51.4520  -14.1480 C   0  0  0  0  0  0  0  0  0  0  0  0
    0.3940   50.7180  -14.9290 O   0  0  0  0  0  0  0  0  0  0  0  0
    0.4460   50.8830  -16.3050 C   0  0  0  0  0  0  0  0  0  0  0  0
   -0.2380   49.9500  -17.0810 C   0  0  0  0  0  0  0  0  0  0  0  0
   -0.2000   50.0940  -18.4550 C   0  0  0  0  0  0  0  0  0  0  0  0
    0.4900   51.1270  -19.0620 C   0  0  0  0  0  0  0  0  0  0  0  0
    0.5210   51.2630  -20.4380 C   0  0  0  0  0  0  0  0  0  0  0  0
    1.1690   52.0550  -18.2930 C   0  0  0  0  0  0  0  0  0  0  0  0
    1.2020   52.2800  -20.9940 N   0  0  0  0  0  0  0  0  0  0  0  0
    1.8630   53.1830  -20.2570 C   0  0  0  0  0  0  0  0  0  0  0  0
    1.2160   52.3660  -22.0100 H   0  0  0  0  0  0  0  0  0  0  0  0
    1.8230   53.0380  -18.9190 N   0  0  0  0  0  0  0  0  0  0  0  0
    2.3230   53.7200  -18.3490 H   0  0  0  0  0  0  0  0  0  0  0  0
    1.1240   51.9010  -16.9290 C   0  0  0  0  0  0  0  0  0  0  0  0
   -0.9320   48.9100  -16.4750 O   0  0  0  0  0  0  0  0  0  0  0  0
   -1.7830   48.1150  -17.2740 C   0  0  0  0  0  0  0  0  0  0  0  0
   -0.1880   50.2920  -21.2010 N   0  0  0  0  0  0  0  0  0  0  0  0
    0.1360   49.3270  -21.2700 H   0  0  0  0  0  0  0  0  0  0  0  0
   -1.3760   50.7350  -21.8650 C   0  0  0  0  0  0  0  0  0  0  0  0
   -1.2850   51.2350  -23.1630 C   0  0  0  0  0  0  0  0  0  0  0  0
   -2.4170   51.6730  -23.8340 C   0  0  0  0  0  0  0  0  0  0  0  0
   -2.3290   52.3030  -25.4520 Cl  0  0  0  0  0  0  0  0  0  0  0  0
   -3.6360   51.5990  -23.1870 C   0  0  0  0  0  0  0  0  0  0  0  0
   -5.0900   52.1380  -23.9920 Cl  0  0  0  0  0  0  0  0  0  0  0  0
   -3.7570   51.1030  -21.8920 C   0  0  0  0  0  0  0  0  0  0  0  0
   -2.6130   50.6660  -21.2250 C   0  0  0  0  0  0  0  0  0  0  0  0
   -1.8864   49.7631  -14.2133 H   0  0  0  0  0  0  0  0  0  0  0  0
   -0.2715   49.5246  -12.2903 H   0  0  0  0  0  0  0  0  0  0  0  0
   -1.8850   49.5961  -11.6750 H   0  0  0  0  0  0  0  0  0  0  0  0
    0.6820   50.3028  -10.4957 H   0  0  0  0  0  0  0  0  0  0  0  0
   -0.0809   51.5575   -9.5486 H   0  0  0  0  0  0  0  0  0  0  0  0
    1.0592   51.9810  -10.8031 H   0  0  0  0  0  0  0  0  0  0  0  0
   -1.8084   53.6145  -11.5483 H   0  0  0  0  0  0  0  0  0  0  0  0
   -0.9712   52.2077  -14.7616 H   0  0  0  0  0  0  0  0  0  0  0  0
    0.0105   51.8773  -13.3264 H   0  0  0  0  0  0  0  0  0  0  0  0
    0.2173   49.1872  -18.8404 H   0  0  0  0  0  0  0  0  0  0  0  0
   -1.2167   50.3354  -18.6851 H   0  0  0  0  0  0  0  0  0  0  0  0
    1.4568   54.1456  -20.4881 H   0  0  0  0  0  0  0  0  0  0  0  0
    2.8922   53.0485  -20.5167 H   0  0  0  0  0  0  0  0  0  0  0  0
    1.6259   52.5860  -16.3426 H   0  0  0  0  0  0  0  0  0  0  0  0
   -2.2421   47.3628  -16.6671 H   0  0  0  0  0  0  0  0  0  0  0  0
   -1.2114   47.6483  -18.0488 H   0  0  0  0  0  0  0  0  0  0  0  0
   -2.5402   48.7316  -17.7114 H   0  0  0  0  0  0  0  0  0  0  0  0
   -0.3656   51.2797  -23.6296 H   0  0  0  0  0  0  0  0  0  0  0  0
   -4.6799   51.0593  -21.4322 H   0  0  0  0  0  0  0  0  0  0  0  0
   -2.6813   50.2942  -20.2647 H   0  0  0  0  0  0  0  0  0  0  0  0
  1 10  1  0  0  0  0
  1  2  1  0  0  0  0
  1 37  1  6  0  0  0
  2  3  1  0  0  0  0
  2 38  1  0  0  0  0
  2 39  1  0  0  0  0
  3  4  1  0  0  0  0
  4 40  1  0  0  0  0
  4 41  1  0  0  0  0
  4 42  1  0  0  0  0
  5  3  1  0  0  0  0
  5  6  1  0  0  0  0
  5 43  1  1  0  0  0
  6  7  3  0  0  0  0
  8  5  1  0  0  0  0
  9  8  1  0  0  0  0
 10  8  1  0  0  0  0
 11  1  1  0  0  0  0
 11 44  1  0  0  0  0
 11 45  1  0  0  0  0
 12 11  1  0  0  0  0
 13 12  1  0  0  0  0
 14 25  1  0  0  0  0
 14 13  2  0  0  0  0
 15 14  1  0  0  0  0
 15 46  1  0  0  0  0
 15 47  1  0  0  0  0
 16 15  1  0  0  0  0
 16 18  1  0  0  0  0
 17 16  2  0  0  0  0
 18 24  2  0  0  0  0
 19 17  1  0  0  0  0
 19 20  1  0  0  0  0
 20 22  1  0  0  0  0
 20 48  1  0  0  0  0
 20 49  1  0  0  0  0
 21 19  1  0  0  0  0
 22 23  1  0  0  0  0
 22 18  1  0  0  0  0
 24 13  1  0  0  0  0
 24 50  1  0  0  0  0
 26 25  1  0  0  0  0
 26 51  1  0  0  0  0
 26 52  1  0  0  0  0
 26 53  1  0  0  0  0
 27 17  1  0  0  0  0
 28 27  1  0  0  0  0
 29 36  1  0  0  0  0
 29 27  1  0  0  0  0
 30 29  2  0  0  0  0
 30 54  1  0  0  0  0
 31 33  2  0  0  0  0
 31 30  1  0  0  0  0
 32 31  1  0  0  0  0
 33 35  1  0  0  0  0
 34 33  1  0  0  0  0
 35 36  2  0  0  0  0
 35 55  1  0  0  0  0
 36 56  1  0  0  0  0
M  END
>  <REMARK>
 VINA RESULT:      -7.5      2.973      4.023
  6 active torsions:
  status: ('A' for Active; 'I' for Inactive)
    1  A    between atoms: O_2  and  C_3 
    2  A    between atoms: C_4  and  O_5 
    3  A    between atoms: O_5  and  C_6 
    4  A    between atoms: C_6  and  C_7 
    5  A    between atoms: C_24  and  N_25 
    6  A    between atoms: N_25  and  C_27 

>  <TORSDO>
F 6

$$$$
resistance_project/docking/8faf60323ce63d5a/P00533_WT/docked/molecule_0001_out.pdbqt
 OpenBabel09142609523D

 56 59  0  0  1  0  0  0  0  0999 V2000
   -1.0590   50.3840  -15.6450 C   0  0  1  0  0  0  0  0  0  0  0  0
   -1.9210   50.1480  -14.4040 C   0  0  0  0  0  0  0  0  0  0  0  0
   -2.0060   48.7130  -14.2210 N   0  0  0  0  0  0  0  0  0  0  0  0
   -3.2160   48.1780  -13.6460 C   0  0  0  0  0  0  0  0  0  0  0  0
   -0.9350   47.8280  -14.5900 C   0  0  2  0  0  0  0  0  0  0  0  0
   -1.0580   46.4170  -14.3380 C   0  0  0  0  0  0  0  0  0  0  0  0
   -1.1750   45.2660  -14.1220 N   0  0  0  0  0  0  0  0  0  0  0  0
    0.1330   48.3370  -15.1500 N   0  0  0  0  0  0  0  0  0  0  0  0
    0.9150   47.7400  -15.4250 H   0  0  0  0  0  0  0  0  0  0  0  0
    0.1780   49.7140  -15.3600 O   0  0  0  0  0  0  0  0  0  0  0  0
   -1.7030   49.5720  -16.7480 C   0  0  0  0  0  0  0  0  0  0  0  0
   -0.7870   49.2100  -17.7600 O   0  0  0  0  0  0  0  0  0  0  0  0
   -0.5040   50.0790  -18.8040 C   0  0  0  0  0  0  0  0  0  0  0  0
   -1.2500   49.9290  -19.9720 C   0  0  0  0  0  0  0  0  0  0  0  0
   -0.9870   50.7840  -21.0260 C   0  0  0  0  0  0  0  0  0  0  0  0
   -0.0160   51.7650  -20.9450 C   0  0  0  0  0  0  0  0  0  0  0  0
    0.2400   52.6150  -22.0050 C   0  0  0  0  0  0  0  0  0  0  0  0
    0.7260   51.9150  -19.7870 C   0  0  0  0  0  0  0  0  0  0  0  0
    1.1910   53.5580  -21.8910 N   0  0  0  0  0  0  0  0  0  0  0  0
    1.9140   53.7100  -20.7740 C   0  0  0  0  0  0  0  0  0  0  0  0
    1.3680   54.1770  -22.6820 H   0  0  0  0  0  0  0  0  0  0  0  0
    1.6540   52.8760  -19.7500 N   0  0  0  0  0  0  0  0  0  0  0  0
    2.1990   52.9830  -18.8950 H   0  0  0  0  0  0  0  0  0  0  0  0
    0.4550   51.0600  -18.7460 C   0  0  0  0  0  0  0  0  0  0  0  0
   -2.2270   48.9450  -20.0570 O   0  0  0  0  0  0  0  0  0  0  0  0
   -2.4460   48.3210  -21.3050 C   0  0  0  0  0  0  0  0  0  0  0  0
   -0.5400   52.4340  -23.1830 N   0  0  0  0  0  0  0  0  0  0  0  0
   -1.5550   52.3400  -23.1420 H   0  0  0  0  0  0  0  0  0  0  0  0
    0.1690   52.3910  -24.4260 C   0  0  0  0  0  0  0  0  0  0  0  0
   -0.2570   53.1950  -25.4820 C   0  0  0  0  0  0  0  0  0  0  0  0
    0.4080   53.1770  -26.6990 C   0  0  0  0  0  0  0  0  0  0  0  0
   -0.1050   54.1690  -28.0310 Cl  0  0  0  0  0  0  0  0  0  0  0  0
    1.5020   52.3440  -26.8400 C   0  0  0  0  0  0  0  0  0  0  0  0
    2.3710   52.2860  -28.3540 Cl  0  0  0  0  0  0  0  0  0  0  0  0
    1.9490   51.5310  -25.8020 C   0  0  0  0  0  0  0  0  0  0  0  0
    1.2750   51.5560  -24.5830 C   0  0  0  0  0  0  0  0  0  0  0  0
   -0.9453   51.4179  -15.8962 H   0  0  0  0  0  0  0  0  0  0  0  0
   -2.8979   50.5593  -14.5502 H   0  0  0  0  0  0  0  0  0  0  0  0
   -1.4941   50.6204  -13.5441 H   0  0  0  0  0  0  0  0  0  0  0  0
   -3.1354   47.1136  -13.5720 H   0  0  0  0  0  0  0  0  0  0  0  0
   -4.0487   48.4302  -14.2688 H   0  0  0  0  0  0  0  0  0  0  0  0
   -3.3614   48.5933  -12.6707 H   0  0  0  0  0  0  0  0  0  0  0  0
   -0.3793   46.9266  -14.7435 H   0  0  0  0  0  0  0  0  0  0  0  0
   -2.1137   48.6804  -16.3223 H   0  0  0  0  0  0  0  0  0  0  0  0
   -2.4606   50.1791  -17.1979 H   0  0  0  0  0  0  0  0  0  0  0  0
   -0.7188   50.1640  -21.8558 H   0  0  0  0  0  0  0  0  0  0  0  0
   -1.8869   51.3604  -21.0797 H   0  0  0  0  0  0  0  0  0  0  0  0
    1.7563   54.7084  -20.4229 H   0  0  0  0  0  0  0  0  0  0  0  0
    2.9182   53.4819  -21.0647 H   0  0  0  0  0  0  0  0  0  0  0  0
    1.0004   51.1603  -17.8757 H   0  0  0  0  0  0  0  0  0  0  0  0
   -3.2234   47.5922  -21.2078 H   0  0  0  0  0  0  0  0  0  0  0  0
   -1.5454   47.8411  -21.6268 H   0  0  0  0  0  0  0  0  0  0  0  0
   -2.7352   49.0569  -22.0259 H   0  0  0  0  0  0  0  0  0  0  0  0
   -1.0760   53.8103  -25.3569 H   0  0  0  0  0  0  0  0  0  0  0  0
    2.7687   50.9180  -25.9338 H   0  0  0  0  0  0  0  0  0  0  0  0
    1.5919   50.9609  -23.8017 H   0  0  0  0  0  0  0  0  0  0  0  0
  1 10  1  0  0  0  0
  1  2  1  0  0  0  0
  1 37  1  6  0  0  0
  2  3  1  0  0  0  0
  2 38  1  0  0  0  0
  2 39  1  0  0  0  0
  3  4  1  0  0  0  0
  4 40  1  0  0  0  0
  4 41  1  0  0  0  0
  4 42  1  0  0  0  0
  5  6  1  0  0  0  0
  5  3  1  0  0  0  0
  5 43  1  6  0  0  0
  6  7  3  0  0  0  0
  8  5  1  0  0  0  0
  9  8  1  0  0  0  0
 10  8  1  0  0  0  0
 11  1  1  0  0  0  0
 11 44  1  0  0  0  0
 11 45  1  0  0  0  0
 12 11  1  0  0  0  0
 13 24  1  0  0  0  0
 13 12  1  0  0  0  0
 14 13  2  0  0  0  0
 15 16  1  0  0  0  0
 15 14  1  0  0  0  0
 15 46  1  0  0  0  0
 15 47  1  0  0  0  0
 16 18  1  0  0  0  0
 17 19  1  0  0  0  0
 17 16  2  0  0  0  0
 18 22  1  0  0  0  0
 18 24  2  0  0  0  0
 19 20  1  0  0  0  0
 20 22  1  0  0  0  0
 20 48  1  0  0  0  0
 20 49  1  0  0  0  0
 21 19  1  0  0  0  0
 22 23  1  0  0  0  0
 24 50  1  0  0  0  0
 25 14  1  0  0  0  0
 26 25  1  0  0  0  0
 26 51  1  0  0  0  0
 26 52  1  0  0  0  0
 26 53  1  0  0  0  0
 27 28  1  0  0  0  0
 27 17  1  0  0  0  0
 29 27  1  0  0  0  0
 30 29  2  0  0  0  0
 30 54  1  0  0  0  0
 31 30  1  0  0  0  0
 32 31  1  0  0  0  0
 33 31  2  0  0  0  0
 33 35  1  0  0  0  0
 34 33  1  0  0  0  0
 35 36  2  0  0  0  0
 35 55  1  0  0  0  0
 36 29  1  0  0  0  0
 36 56  1  0  0  0  0
M  END
>  <REMARK>
 VINA RESULT:      -7.5      2.150      2.979
  6 active torsions:
  status: ('A' for Active; 'I' for Inactive)
    1  A    between atoms: O_2  and  C_3 
    2  A    between atoms: C_4  and  O_5 
    3  A    between atoms: O_5  and  C_6 
    4  A    between atoms: C_6  and  C_7 
    5  A    between atoms: C_24  and  N_25 
    6  A    between atoms: N_25  and  C_27 

>  <TORSDO>
F 6

$$$$
resistance_project/docking/8faf60323ce63d5a/P00533_WT/docked/molecule_0001_out.pdbqt
 OpenBabel09142609523D

 56 59  0  0  1  0  0  0  0  0999 V2000
    0.1900   51.9910  -12.4850 C   0  0  1  0  0  0  0  0  0  0  0  0
   -0.9180   52.7030  -11.7090 C   0  0  0  0  0  0  0  0  0  0  0  0
   -2.1250   51.9230  -11.8910 N   0  0  0  0  0  0  0  0  0  0  0  0
   -3.3850   52.6260  -11.9100 C   0  0  0  0  0  0  0  0  0  0  0  0
   -2.0990   50.4950  -12.0510 C   0  0  2  0  0  0  0  0  0  0  0  0
   -3.3340   49.7690  -12.1790 C   0  0  0  0  0  0  0  0  0  0  0  0
   -4.3540   49.1920  -12.2800 N   0  0  0  0  0  0  0  0  0  0  0  0
   -0.9380   49.8890  -12.0750 N   0  0  0  0  0  0  0  0  0  0  0  0
   -0.8790   48.8760  -12.1860 H   0  0  0  0  0  0  0  0  0  0  0  0
    0.2150   50.6620  -11.9440 O   0  0  0  0  0  0  0  0  0  0  0  0
   -0.3380   51.8330  -13.8950 C   0  0  0  0  0  0  0  0  0  0  0  0
    0.4180   50.9150  -14.6570 O   0  0  0  0  0  0  0  0  0  0  0  0
    0.4650   51.0110  -16.0400 C   0  0  0  0  0  0  0  0  0  0  0  0
   -0.2460   50.0570  -16.7660 C   0  0  0  0  0  0  0  0  0  0  0  0
   -0.2130   50.1340  -18.1450 C   0  0  0  0  0  0  0  0  0  0  0  0
    0.4970   51.1190  -18.8060 C   0  0  0  0  0  0  0  0  0  0  0  0
    0.5230   51.1870  -20.1870 C   0  0  0  0  0  0  0  0  0  0  0  0
    1.2030   52.0670  -18.0870 C   0  0  0  0  0  0  0  0  0  0  0  0
    1.2240   52.1580  -20.7950 N   0  0  0  0  0  0  0  0  0  0  0  0
    1.9100   53.0800  -20.1070 C   0  0  0  0  0  0  0  0  0  0  0  0
    1.2330   52.1940  -21.8140 H   0  0  0  0  0  0  0  0  0  0  0  0
    1.8760   53.0020  -18.7640 N   0  0  0  0  0  0  0  0  0  0  0  0
    2.3950   53.6990  -18.2300 H   0  0  0  0  0  0  0  0  0  0  0  0
    1.1630   51.9810  -16.7160 C   0  0  0  0  0  0  0  0  0  0  0  0
   -0.9610   49.0660  -16.1060 O   0  0  0  0  0  0  0  0  0  0  0  0
   -2.3340   49.2810  -15.8550 C   0  0  0  0  0  0  0  0  0  0  0  0
   -0.2140   50.1960  -20.8970 N   0  0  0  0  0  0  0  0  0  0  0  0
    0.0890   49.2220  -20.9250 H   0  0  0  0  0  0  0  0  0  0  0  0
   -1.4000   50.6330  -21.5700 C   0  0  0  0  0  0  0  0  0  0  0  0
   -1.2860   51.2990  -22.7890 C   0  0  0  0  0  0  0  0  0  0  0  0
   -2.4150   51.7360  -23.4660 C   0  0  0  0  0  0  0  0  0  0  0  0
   -2.2980   52.5700  -24.9870 Cl  0  0  0  0  0  0  0  0  0  0  0  0
   -3.6550   51.4930  -22.9050 C   0  0  0  0  0  0  0  0  0  0  0  0
   -5.1050   52.0240  -23.7200 Cl  0  0  0  0  0  0  0  0  0  0  0  0
   -3.7980   50.8300  -21.6890 C   0  0  0  0  0  0  0  0  0  0  0  0
   -2.6580   50.3950  -21.0160 C   0  0  0  0  0  0  0  0  0  0  0  0
    1.1329   52.4951  -12.4432 H   0  0  0  0  0  0  0  0  0  0  0  0
   -1.0579   53.6925  -12.0913 H   0  0  0  0  0  0  0  0  0  0  0  0
   -0.6676   52.7861  -10.6720 H   0  0  0  0  0  0  0  0  0  0  0  0
   -4.1819   51.9260  -12.0510 H   0  0  0  0  0  0  0  0  0  0  0  0
   -3.3862   53.3342  -12.7121 H   0  0  0  0  0  0  0  0  0  0  0  0
   -3.5212   53.1391  -10.9810 H   0  0  0  0  0  0  0  0  0  0  0  0
   -2.4635   49.5006  -12.2033 H   0  0  0  0  0  0  0  0  0  0  0  0
   -1.3493   51.4869  -13.8457 H   0  0  0  0  0  0  0  0  0  0  0  0
   -0.2709   52.7867  -14.3756 H   0  0  0  0  0  0  0  0  0  0  0  0
    0.1801   49.1998  -18.4880 H   0  0  0  0  0  0  0  0  0  0  0  0
   -1.2250   50.3894  -18.3805 H   0  0  0  0  0  0  0  0  0  0  0  0
    1.5243   54.0392  -20.3828 H   0  0  0  0  0  0  0  0  0  0  0  0
    2.9341   52.9088  -20.3655 H   0  0  0  0  0  0  0  0  0  0  0  0
    1.6845   52.6816  -16.1663 H   0  0  0  0  0  0  0  0  0  0  0  0
   -2.7401   48.4334  -15.3435 H   0  0  0  0  0  0  0  0  0  0  0  0
   -2.8490   49.4181  -16.7828 H   0  0  0  0  0  0  0  0  0  0  0  0
   -2.4532   50.1544  -15.2485 H   0  0  0  0  0  0  0  0  0  0  0  0
   -0.3514   51.4689  -23.1923 H   0  0  0  0  0  0  0  0  0  0  0  0
   -4.7356   50.6630  -21.2915 H   0  0  0  0  0  0  0  0  0  0  0  0
   -2.7437   49.9004  -20.1143 H   0  0  0  0  0  0  0  0  0  0  0  0
  1 10  1  0  0  0  0
  1  2  1  0  0  0  0
  1 37  1  1  0  0  0
  2 38  1  0  0  0  0
  2 39  1  0  0  0  0
  3  2  1  0  0  0  0
  4  3  1  0  0  0  0
  4 40  1  0  0  0  0
  4 41  1  0  0  0  0
  4 42  1  0  0  0  0
  5  3  1  0  0  0  0
  5 43  1  6  0  0  0
  6  5  1  0  0  0  0
  7  6  3  0  0  0  0
  8  5  1  0  0  0  0
  8 10  1  0  0  0  0
  9  8  1  0  0  0  0
 11  1  1  0  0  0  0
 11 44  1  0  0  0  0
 11 45  1  0  0  0  0
 12 11  1  0  0  0  0
 13 12  1  0  0  0  0
 14 25  1  0  0  0  0
 14 13  2  0  0  0  0
 15 14  1  0  0  0  0
 15 46  1  0  0  0  0
 15 47  1  0  0  0  0
 16 15  1  0  0  0  0
 16 18  1  0  0  0  0
 17 16  2  0  0  0  0
 18 24  2  0  0  0  0
 19 17  1  0  0  0  0
 19 20  1  0  0  0  0
 20 22  1  0  0  0  0
 20 48  1  0  0  0  0
 20 49  1  0  0  0  0
 21 19  1  0  0  0  0
 22 23  1  0  0  0  0
 22 18  1  0  0  0  0
 24 13  1  0  0  0  0
 24 50  1  0  0  0  0
 25 26  1  0  0  0  0
 26 51  1  0  0  0  0
 26 52  1  0  0  0  0
 26 53  1  0  0  0  0
 27 17  1  0  0  0  0
 28 27  1  0  0  0  0
 29 36  1  0  0  0  0
 29 27  1  0  0  0  0
 30 29  2  0  0  0  0
 30 54  1  0  0  0  0
 31 33  2  0  0  0  0
 31 30  1  0  0  0  0
 32 31  1  0  0  0  0
 33 35  1  0  0  0  0
 34 33  1  0  0  0  0
 35 36  2  0  0  0  0
 35 55  1  0  0  0  0
 36 56  1  0  0  0  0
M  END
>  <REMARK>
 VINA RESULT:      -7.5      3.116      4.640
  6 active torsions:
  status: ('A' for Active; 'I' for Inactive)
    1  A    between atoms: O_2  and  C_3 
    2  A    between atoms: C_4  and  O_5 
    3  A    between atoms: O_5  and  C_6 
    4  A    between atoms: C_6  and  C_7 
    5  A    between atoms: C_24  and  N_25 
    6  A    between atoms: N_25  and  C_27 

>  <TORSDO>
F 6

$$$$
resistance_project/docking/8faf60323ce63d5a/P00533_WT/docked/molecule_0001_out.pdbqt
 OpenBabel09142609523D

 56 59  0  0  1  0  0  0  0  0999 V2000
   -0.7870   51.8450  -12.2970 C   0  0  1  0  0  0  0  0  0  0  0  0
   -1.6070   52.8490  -11.4860 C   0  0  0  0  0  0  0  0  0  0  0  0
   -2.9120   52.2540  -11.2800 N   0  0  0  0  0  0  0  0  0  0  0  0
   -4.0500   53.1380  -11.2040 C   0  0  0  0  0  0  0  0  0  0  0  0
   -3.0960   50.8350  -11.1520 C   0  0  2  0  0  0  0  0  0  0  0  0
   -4.4100   50.3070  -10.8990 C   0  0  0  0  0  0  0  0  0  0  0  0
   -5.4920   49.8930  -10.6900 N   0  0  0  0  0  0  0  0  0  0  0  0
   -2.0520   50.0550  -11.2700 N   0  0  0  0  0  0  0  0  0  0  0  0
   -2.1430   49.0410  -11.1850 H   0  0  0  0  0  0  0  0  0  0  0  0
   -0.8110   50.6420  -11.5140 O   0  0  0  0  0  0  0  0  0  0  0  0
   -1.6190   51.5350  -13.5230 C   0  0  0  0  0  0  0  0  0  0  0  0
   -1.1170   50.4370  -14.2550 O   0  0  0  0  0  0  0  0  0  0  0  0
   -1.1960   50.4130  -15.6400 C   0  0  0  0  0  0  0  0  0  0  0  0
    0.0070   50.3730  -16.3420 C   0  0  0  0  0  0  0  0  0  0  0  0
   -0.0480   50.3480  -17.7230 C   0  0  0  0  0  0  0  0  0  0  0  0
   -1.2490   50.3620  -18.4080 C   0  0  0  0  0  0  0  0  0  0  0  0
   -1.2920   50.3370  -19.7900 C   0  0  0  0  0  0  0  0  0  0  0  0
   -2.4440   50.4020  -17.7120 C   0  0  0  0  0  0  0  0  0  0  0  0
   -2.4780   50.3520  -20.4210 N   0  0  0  0  0  0  0  0  0  0  0  0
   -3.6400   50.3900  -19.7560 C   0  0  0  0  0  0  0  0  0  0  0  0
   -2.4930   50.3330  -21.4410 H   0  0  0  0  0  0  0  0  0  0  0  0
   -3.5830   50.4150  -18.4110 N   0  0  0  0  0  0  0  0  0  0  0  0
   -4.4620   50.4440  -17.8950 H   0  0  0  0  0  0  0  0  0  0  0  0
   -2.3780   50.4260  -16.3400 C   0  0  0  0  0  0  0  0  0  0  0  0
    1.2160   50.3580  -15.6590 O   0  0  0  0  0  0  0  0  0  0  0  0
    1.8820   51.5850  -15.4450 C   0  0  0  0  0  0  0  0  0  0  0  0
   -0.0450   50.2960  -20.4750 N   0  0  0  0  0  0  0  0  0  0  0  0
    0.5880   49.5000  -20.3880 H   0  0  0  0  0  0  0  0  0  0  0  0
    0.2790   51.4270  -21.2930 C   0  0  0  0  0  0  0  0  0  0  0  0
   -0.1270   51.4420  -22.6260 C   0  0  0  0  0  0  0  0  0  0  0  0
    0.1710   52.5210  -23.4440 C   0  0  0  0  0  0  0  0  0  0  0  0
   -0.3230   52.5630  -25.1110 Cl  0  0  0  0  0  0  0  0  0  0  0  0
    0.8780   53.5800  -22.9070 C   0  0  0  0  0  0  0  0  0  0  0  0
    1.2760   54.9620  -23.8980 Cl  0  0  0  0  0  0  0  0  0  0  0  0
    1.2950   53.5920  -21.5790 C   0  0  0  0  0  0  0  0  0  0  0  0
    0.9910   52.5030  -20.7640 C   0  0  0  0  0  0  0  0  0  0  0  0
    0.1977   52.1899  -12.5344 H   0  0  0  0  0  0  0  0  0  0  0  0
   -1.7022   53.7681  -12.0255 H   0  0  0  0  0  0  0  0  0  0  0  0
   -1.1325   53.0669  -10.5520 H   0  0  0  0  0  0  0  0  0  0  0  0
   -3.7235   54.1504  -11.3196 H   0  0  0  0  0  0  0  0  0  0  0  0
   -4.5276   53.0236  -10.2534 H   0  0  0  0  0  0  0  0  0  0  0  0
   -4.7426   52.8955  -11.9827 H   0  0  0  0  0  0  0  0  0  0  0  0
   -3.5764   49.8879  -11.0211 H   0  0  0  0  0  0  0  0  0  0  0  0
   -2.6181   51.3117  -13.2119 H   0  0  0  0  0  0  0  0  0  0  0  0
   -1.5876   52.3927  -14.1619 H   0  0  0  0  0  0  0  0  0  0  0  0
    0.4994   51.2033  -18.0603 H   0  0  0  0  0  0  0  0  0  0  0  0
    0.3266   49.3707  -17.9455 H   0  0  0  0  0  0  0  0  0  0  0  0
   -4.1996   49.5225  -20.0376 H   0  0  0  0  0  0  0  0  0  0  0  0
   -4.0813   51.3258  -20.0289 H   0  0  0  0  0  0  0  0  0  0  0  0
   -3.2617   50.4553  -15.8079 H   0  0  0  0  0  0  0  0  0  0  0  0
    2.7914   51.4085  -14.9095 H   0  0  0  0  0  0  0  0  0  0  0  0
    1.2536   52.2373  -14.8754 H   0  0  0  0  0  0  0  0  0  0  0  0
    2.1056   52.0387  -16.3879 H   0  0  0  0  0  0  0  0  0  0  0  0
   -0.6549   50.6418  -23.0082 H   0  0  0  0  0  0  0  0  0  0  0  0
    1.8218   54.3959  -21.2032 H   0  0  0  0  0  0  0  0  0  0  0  0
    1.2906   52.4930  -19.7765 H   0  0  0  0  0  0  0  0  0  0  0  0
  1 10  1  0  0  0  0
  1  2  1  0  0  0  0
  1 37  1  6  0  0  0
  2  3  1  0  0  0  0
  2 38  1  0  0  0  0
  2 39  1  0  0  0  0
  3  4  1  0  0  0  0
  3  5  1  0  0  0  0
  4 40  1  0  0  0  0
  4 41  1  0  0  0  0
  4 42  1  0  0  0  0
  5  6  1  0  0  0  0
  5 43  1  6  0  0  0
  6  7  3  0  0  0  0
  8  9  1  0  0  0  0
  8  5  1  0  0  0  0
 10  8  1  0  0  0  0
 11  1  1  0  0  0  0
 11 44  1  0  0  0  0
 11 45  1  0  0  0  0
 12 11  1  0  0  0  0
 13 12  1  0  0  0  0
 14 25  1  0  0  0  0
 14 13  2  0  0  0  0
 15 14  1  0  0  0  0
 15 46  1  0  0  0  0
 15 47  1  0  0  0  0
 16 15  1  0  0  0  0
 16 18  1  0  0  0  0
 17 16  2  0  0  0  0
 18 24  2  0  0  0  0
 19 17  1  0  0  0  0
 19 20  1  0  0  0  0
 20 22  1  0  0  0  0
 20 48  1  0  0  0  0
 20 49  1  0  0  0  0
 21 19  1  0  0  0  0
 22 23  1  0  0  0  0
 22 18  1  0  0  0  0
 24 13  1  0  0  0  0
 24 50  1  0  0  0  0
 25 26  1  0  0  0  0
 26 51  1  0  0  0  0
 26 52  1  0  0  0  0
 26 53  1  0  0  0  0
 27 28  1  0  0  0  0
 27 17  1  0  0  0  0
 29 36  1  0  0  0  0
 29 27  1  0  0  0  0
 30 29  2  0  0  0  0
 30 54  1  0  0  0  0
 31 33  2  0  0  0  0
 31 30  1  0  0  0  0
 32 31  1  0  0  0  0
 33 35  1  0  0  0  0
 34 33  1  0  0  0  0
 35 36  2  0  0  0  0
 35 55  1  0  0  0  0
 36 56  1  0  0  0  0
M  END
>  <REMARK>
 VINA RESULT:      -7.3      3.552      5.244
  6 active torsions:
  status: ('A' for Active; 'I' for Inactive)
    1  A    between atoms: O_2  and  C_3 
    2  A    between atoms: C_4  and  O_5 
    3  A    between atoms: O_5  and  C_6 
    4  A    between atoms: C_6  and  C_7 
    5  A    between atoms: C_24  and  N_25 
    6  A    between atoms: N_25  and  C_27 

>  <TORSDO>
F 6

$$$$
resistance_project/docking/8faf60323ce63d5a/P00533_WT/docked/molecule_0001_out.pdbqt
 OpenBabel09142609523D

 56 59  0  0  1  0  0  0  0  0999 V2000
    0.3100   50.2980  -14.5650 C   0  0  1  0  0  0  0  0  0  0  0  0
    1.3480   50.0170  -13.4780 C   0  0  0  0  0  0  0  0  0  0  0  0
    2.6020   50.5750  -13.9420 N   0  0  0  0  0  0  0  0  0  0  0  0
    3.8220   49.9140  -13.5450 C   0  0  0  0  0  0  0  0  0  0  0  0
    2.6590   51.7490  -14.7700 C   0  0  1  0  0  0  0  0  0  0  0  0
    3.9360   52.2850  -15.1590 C   0  0  0  0  0  0  0  0  0  0  0  0
    4.9890   52.7120  -15.4650 N   0  0  0  0  0  0  0  0  0  0  0  0
    1.5350   52.3020  -15.1510 N   0  0  0  0  0  0  0  0  0  0  0  0
    1.5360   53.1360  -15.7390 H   0  0  0  0  0  0  0  0  0  0  0  0
    0.3380   51.7230  -14.7320 O   0  0  0  0  0  0  0  0  0  0  0  0
    0.8980   49.7390  -15.8430 C   0  0  0  0  0  0  0  0  0  0  0  0
   -0.0810   49.5110  -16.8350 O   0  0  0  0  0  0  0  0  0  0  0  0
    0.0130   50.1220  -18.0770 C   0  0  0  0  0  0  0  0  0  0  0  0
   -0.4360   49.3940  -19.1770 C   0  0  0  0  0  0  0  0  0  0  0  0
   -0.3530   49.9830  -20.4240 C   0  0  0  0  0  0  0  0  0  0  0  0
    0.1580   51.2560  -20.5980 C   0  0  0  0  0  0  0  0  0  0  0  0
    0.2370   51.8370  -21.8510 C   0  0  0  0  0  0  0  0  0  0  0  0
    0.6050   51.9810  -19.5070 C   0  0  0  0  0  0  0  0  0  0  0  0
    0.7390   53.0760  -21.9820 N   0  0  0  0  0  0  0  0  0  0  0  0
    1.1740   53.7840  -20.9320 C   0  0  0  0  0  0  0  0  0  0  0  0
    0.7910   53.4900  -22.9130 H   0  0  0  0  0  0  0  0  0  0  0  0
    1.0910   53.2070  -19.7190 N   0  0  0  0  0  0  0  0  0  0  0  0
    1.4190   53.7380  -18.9120 H   0  0  0  0  0  0  0  0  0  0  0  0
    0.5160   51.3850  -18.2720 C   0  0  0  0  0  0  0  0  0  0  0  0
   -0.9500   48.1150  -19.0060 O   0  0  0  0  0  0  0  0  0  0  0  0
   -2.1300   47.7670  -19.7000 C   0  0  0  0  0  0  0  0  0  0  0  0
   -0.2300   51.0640  -22.9520 N   0  0  0  0  0  0  0  0  0  0  0  0
    0.4150   50.6270  -23.6100 H   0  0  0  0  0  0  0  0  0  0  0  0
   -1.6490   50.9330  -23.0920 C   0  0  0  0  0  0  0  0  0  0  0  0
   -2.2150   49.6590  -23.1240 C   0  0  0  0  0  0  0  0  0  0  0  0
   -3.5860   49.4970  -23.2580 C   0  0  0  0  0  0  0  0  0  0  0  0
   -4.3150   47.9200  -23.3020 Cl  0  0  0  0  0  0  0  0  0  0  0  0
   -4.3760   50.6270  -23.3580 C   0  0  0  0  0  0  0  0  0  0  0  0
   -6.1080   50.4730  -23.5290 Cl  0  0  0  0  0  0  0  0  0  0  0  0
   -3.8380   51.9100  -23.3280 C   0  0  0  0  0  0  0  0  0  0  0  0
   -2.4590   52.0630  -23.1930 C   0  0  0  0  0  0  0  0  0  0  0  0
   -0.6601   49.9053  -14.3421 H   0  0  0  0  0  0  0  0  0  0  0  0
    1.4475   48.9623  -13.3275 H   0  0  0  0  0  0  0  0  0  0  0  0
    1.0553   50.4533  -12.5458 H   0  0  0  0  0  0  0  0  0  0  0  0
    4.6604   50.4342  -13.9589 H   0  0  0  0  0  0  0  0  0  0  0  0
    3.8148   48.9061  -13.9043 H   0  0  0  0  0  0  0  0  0  0  0  0
    3.8953   49.9116  -12.4775 H   0  0  0  0  0  0  0  0  0  0  0  0
    3.0557   52.5741  -15.3238 H   0  0  0  0  0  0  0  0  0  0  0  0
    1.6161   50.4351  -16.2234 H   0  0  0  0  0  0  0  0  0  0  0  0
    1.3484   48.7972  -15.6086 H   0  0  0  0  0  0  0  0  0  0  0  0
    0.2500   49.3332  -21.0232 H   0  0  0  0  0  0  0  0  0  0  0  0
   -1.3834   50.1164  -20.6798 H   0  0  0  0  0  0  0  0  0  0  0  0
    0.6041   54.6889  -20.8967 H   0  0  0  0  0  0  0  0  0  0  0  0
    2.2225   53.9115  -21.1033 H   0  0  0  0  0  0  0  0  0  0  0  0
    0.8440   51.9137  -17.4486 H   0  0  0  0  0  0  0  0  0  0  0  0
   -2.3968   46.7575  -19.4661 H   0  0  0  0  0  0  0  0  0  0  0  0
   -1.9641   47.8572  -20.7532 H   0  0  0  0  0  0  0  0  0  0  0  0
   -2.9230   48.4226  -19.4064 H   0  0  0  0  0  0  0  0  0  0  0  0
   -1.6076   48.8282  -23.0472 H   0  0  0  0  0  0  0  0  0  0  0  0
   -4.4512   52.7365  -23.4046 H   0  0  0  0  0  0  0  0  0  0  0  0
   -2.0408   53.0061  -23.1680 H   0  0  0  0  0  0  0  0  0  0  0  0
  1  2  1  0  0  0  0
  1 37  1  1  0  0  0
  2 38  1  0  0  0  0
  2 39  1  0  0  0  0
  3  4  1  0  0  0  0
  3  2  1  0  0  0  0
  4 40  1  0  0  0  0
  4 41  1  0  0  0  0
  4 42  1  0  0  0  0
  5  3  1  0  0  0  0
  5 43  1  1  0  0  0
  6  5  1  0  0  0  0
  7  6  3  0  0  0  0
  8  5  1  0  0  0  0
  8 10  1  0  0  0  0
  9  8  1  0  0  0  0
 10  1  1  0  0  0  0
 11  1  1  0  0  0  0
 11 44  1  0  0  0  0
 11 45  1  0  0  0  0
 12 11  1  0  0  0  0
 13 12  1  0  0  0  0
 14 25  1  0  0  0  0
 14 13  2  0  0  0  0
 15 14  1  0  0  0  0
 15 46  1  0  0  0  0
 15 47  1  0  0  0  0
 16 15  1  0  0  0  0
 16 18  1  0  0  0  0
 17 16  2  0  0  0  0
 18 24  2  0  0  0  0
 19 17  1  0  0  0  0
 19 20  1  0  0  0  0
 20 22  1  0  0  0  0
 20 48  1  0  0  0  0
 20 49  1  0  0  0  0
 21 19  1  0  0  0  0
 22 18  1  0  0  0  0
 22 23  1  0  0  0  0
 24 13  1  0  0  0  0
 24 50  1  0  0  0  0
 26 25  1  0  0  0  0
 26 51  1  0  0  0  0
 26 52  1  0  0  0  0
 26 53  1  0  0  0  0
 27 17  1  0  0  0  0
 28 27  1  0  0  0  0
 29 27  1  0  0  0  0
 30 29  1  0  0  0  0
 30 54  1  0  0  0  0
 31 30  2  0  0  0  0
 32 31  1  0  0  0  0
 33 35  2  0  0  0  0
 33 31  1  0  0  0  0
 34 33  1  0  0  0  0
 35 36  1  0  0  0  0
 35 55  1  0  0  0  0
 36 29  2  0  0  0  0
 36 56  1  0  0  0  0
M  END
>  <REMARK>
 VINA RESULT:      -7.3      2.826      3.337
  6 active torsions:
  status: ('A' for Active; 'I' for Inactive)
    1  A    between atoms: O_2  and  C_3 
    2  A    between atoms: C_4  and  O_5 
    3  A    between atoms: O_5  and  C_6 
    4  A    between atoms: C_6  and  C_7 
    5  A    between atoms: C_24  and  N_25 
    6  A    between atoms: N_25  and  C_27 

>  <TORSDO>
F 6

$$$$
