resistance_project/docking/8faf60323ce63d5a/P00533_WT/docked/molecule_0004_out.pdbqt
 OpenBabel09142609533D

 84 88  0  0  1  0  0  0  0  0999 V2000
    1.8910   52.3010  -15.7540 C   0  0  1  0  0  0  0  0  0  0  0  0
    3.1500   51.9220  -15.4300 N   0  0  0  0  0  0  0  0  0  0  0  0
    3.9030   51.9470  -16.1180 H   0  0  0  0  0  0  0  0  0  0  0  0
    3.3770   51.5170  -14.1710 C   0  0  0  0  0  0  0  0  0  0  0  0
    2.3650   51.4850  -13.2460 C   0  0  0  0  0  0  0  0  0  0  0  0
    2.7680   50.9160  -11.6370 Cl  0  0  0  0  0  0  0  0  0  0  0  0
    1.0620   51.8760  -13.5840 C   0  0  0  0  0  0  0  0  0  0  0  0
    0.8970   52.2710  -14.8550 N   0  0  0  0  0  0  0  0  0  0  0  0
   -0.0320   52.5650  -15.1530 H   0  0  0  0  0  0  0  0  0  0  0  0
    1.5450   52.7650  -17.0630 N   0  0  0  0  0  0  0  0  0  0  0  0
    1.7290   53.7390  -17.3080 H   0  0  0  0  0  0  0  0  0  0  0  0
    0.9530   51.9100  -18.0330 C   0  0  0  0  0  0  0  0  0  0  0  0
    0.9690   52.2480  -19.3630 C   0  0  0  0  0  0  0  0  0  0  0  0
    0.4060   51.3890  -20.2910 C   0  0  0  0  0  0  0  0  0  0  0  0
   -0.1730   50.1880  -19.8600 C   0  0  0  0  0  0  0  0  0  0  0  0
   -0.1940   49.8410  -18.5150 C   0  0  0  0  0  0  0  0  0  0  0  0
    0.3780   50.7150  -17.5840 C   0  0  0  0  0  0  0  0  0  0  0  0
    1.5300   53.4220  -19.8360 O   0  0  0  0  0  0  0  0  0  0  0  0
    1.4790   53.8160  -21.1900 C   0  0  0  0  0  0  0  0  0  0  0  0
   -0.7200   49.3450  -20.8750 N   0  0  0  0  0  0  0  0  0  0  0  0
   -0.8260   47.9060  -20.7270 C   0  0  0  0  0  0  0  0  0  0  0  0
   -2.1400   47.4900  -21.3360 C   0  0  0  0  0  0  0  0  0  0  0  0
   -3.1390   48.5670  -21.4750 C   0  0  2  0  0  0  0  0  0  0  0  0
   -2.6950   49.8450  -22.0610 C   0  0  0  0  0  0  0  0  0  0  0  0
   -1.1950   50.0270  -22.0970 C   0  0  0  0  0  0  0  0  0  0  0  0
   -4.2780   48.5460  -20.6550 N   0  0  0  0  0  0  0  0  0  0  0  0
   -4.5480   49.6960  -19.8610 C   0  0  0  0  0  0  0  0  0  0  0  0
   -3.9460   49.6340  -18.4730 C   0  0  0  0  0  0  0  0  0  0  0  0
   -3.4100   48.2810  -18.3000 N   0  0  0  0  0  0  0  0  0  0  0  0
   -3.0400   48.1160  -16.9250 C   0  0  0  0  0  0  0  0  0  0  0  0
   -4.5350   47.3760  -18.5880 C   0  0  0  0  0  0  0  0  0  0  0  0
   -4.6020   47.2800  -20.0980 C   0  0  0  0  0  0  0  0  0  0  0  0
    0.0940   51.7970  -12.5960 N   0  0  0  0  0  0  0  0  0  0  0  0
   -0.2550   50.8540  -12.4220 H   0  0  0  0  0  0  0  0  0  0  0  0
   -0.4940   52.7920  -11.7910 C   0  0  0  0  0  0  0  0  0  0  0  0
    0.4530   53.6450  -11.1790 C   0  0  0  0  0  0  0  0  0  0  0  0
    0.0170   54.6440  -10.3850 C   0  0  0  0  0  0  0  0  0  0  0  0
   -1.3260   54.8090  -10.1890 C   0  0  0  0  0  0  0  0  0  0  0  0
   -2.2460   53.9990  -10.7730 C   0  0  0  0  0  0  0  0  0  0  0  0
   -1.8410   52.9620  -11.5980 C   0  0  0  0  0  0  0  0  0  0  0  0
   -3.0890   52.0520  -12.3840 S   0  0  0  0  0  0  0  0  0  0  0  0
   -2.6110   51.6910  -13.7900 O   0  0  0  0  0  0  0  0  0  0  0  0
   -4.3390   52.8340  -12.4680 O   0  0  0  0  0  0  0  0  0  0  0  0
   -3.3890   50.5510  -11.5020 C   0  0  0  0  0  0  0  0  0  0  0  0
   -4.7230   50.6170  -10.8250 C   0  0  0  0  0  0  0  0  0  0  0  0
   -3.3400   49.3600  -12.4420 C   0  0  0  0  0  0  0  0  0  0  0  0
    4.1312   52.1643  -13.7745 H   0  0  0  0  0  0  0  0  0  0  0  0
    0.4126   51.6316  -21.2941 H   0  0  0  0  0  0  0  0  0  0  0  0
   -0.6238   48.9544  -18.2080 H   0  0  0  0  0  0  0  0  0  0  0  0
    0.3761   50.4817  -16.5787 H   0  0  0  0  0  0  0  0  0  0  0  0
    1.9796   54.7544  -21.3075 H   0  0  0  0  0  0  0  0  0  0  0  0
    0.4580   53.9158  -21.4942 H   0  0  0  0  0  0  0  0  0  0  0  0
    1.9607   53.0766  -21.7950 H   0  0  0  0  0  0  0  0  0  0  0  0
   -0.0174   47.4247  -21.2363 H   0  0  0  0  0  0  0  0  0  0  0  0
   -0.7806   47.6263  -19.6952 H   0  0  0  0  0  0  0  0  0  0  0  0
   -1.9424   47.0945  -22.3104 H   0  0  0  0  0  0  0  0  0  0  0  0
   -2.5659   46.7762  -20.6622 H   0  0  0  0  0  0  0  0  0  0  0  0
   -3.6505   48.1928  -22.3371 H   0  0  0  0  0  0  0  0  0  0  0  0
   -3.0629   49.8990  -23.0643 H   0  0  0  0  0  0  0  0  0  0  0  0
   -3.0819   50.6200  -21.4329 H   0  0  0  0  0  0  0  0  0  0  0  0
   -0.9377   51.0654  -22.0769 H   0  0  0  0  0  0  0  0  0  0  0  0
   -0.7542   49.6292  -22.9871 H   0  0  0  0  0  0  0  0  0  0  0  0
   -5.6087   49.7982  -19.7646 H   0  0  0  0  0  0  0  0  0  0  0  0
   -4.1002   50.5309  -20.3584 H   0  0  0  0  0  0  0  0  0  0  0  0
   -4.6979   49.8285  -17.7370 H   0  0  0  0  0  0  0  0  0  0  0  0
   -3.1762   50.3680  -18.3569 H   0  0  0  0  0  0  0  0  0  0  0  0
   -2.6454   47.1324  -16.7774 H   0  0  0  0  0  0  0  0  0  0  0  0
   -3.9015   48.2514  -16.3051 H   0  0  0  0  0  0  0  0  0  0  0  0
   -2.2968   48.8410  -16.6662 H   0  0  0  0  0  0  0  0  0  0  0  0
   -4.3580   46.4116  -18.1596 H   0  0  0  0  0  0  0  0  0  0  0  0
   -5.4520   47.7385  -18.1726 H   0  0  0  0  0  0  0  0  0  0  0  0
   -3.9031   46.5467  -20.4425 H   0  0  0  0  0  0  0  0  0  0  0  0
   -5.5878   46.9932  -20.3994 H   0  0  0  0  0  0  0  0  0  0  0  0
    1.4631   53.5052  -11.3376 H   0  0  0  0  0  0  0  0  0  0  0  0
    0.6913   55.2785   -9.9292 H   0  0  0  0  0  0  0  0  0  0  0  0
   -1.6510   55.5740   -9.5773 H   0  0  0  0  0  0  0  0  0  0  0  0
   -3.2514   54.1564  -10.6017 H   0  0  0  0  0  0  0  0  0  0  0  0
   -2.6249   50.4299  -10.7628 H   0  0  0  0  0  0  0  0  0  0  0  0
   -5.4906   50.7381  -11.5605 H   0  0  0  0  0  0  0  0  0  0  0  0
   -4.7403   51.4480  -10.1512 H   0  0  0  0  0  0  0  0  0  0  0  0
   -4.8913   49.7120  -10.2795 H   0  0  0  0  0  0  0  0  0  0  0  0
   -4.0986   49.4641  -13.1894 H   0  0  0  0  0  0  0  0  0  0  0  0
   -3.5071   48.4605  -11.8871 H   0  0  0  0  0  0  0  0  0  0  0  0
   -2.3798   49.3159  -12.9121 H   0  0  0  0  0  0  0  0  0  0  0  0
  1 10  1  1  0  0  0
  1  2  1  0  0  0  0
  1  8  1  0  0  0  0
  2  4  1  0  0  0  0
  3  2  1  0  0  0  0
  4  5  1  0  0  0  0
  4 47  1  0  0  0  0
  5  6  1  0  0  0  0
  7  5  2  0  0  0  0
  7 33  1  0  0  0  0
  8  7  1  0  0  0  0
  9  8  1  0  0  0  0
 11 10  1  0  0  0  0
 12 17  1  0  0  0  0
 12 10  1  0  0  0  0
 13 12  2  0  0  0  0
 14 15  2  0  0  0  0
 14 13  1  0  0  0  0
 14 48  1  0  0  0  0
 15 16  1  0  0  0  0
 16 17  2  0  0  0  0
 16 49  1  0  0  0  0
 17 50  1  0  0  0  0
 18 13  1  0  0  0  0
 19 18  1  0  0  0  0
 19 51  1  0  0  0  0
 19 52  1  0  0  0  0
 19 53  1  0  0  0  0
 20 21  1  0  0  0  0
 20 15  1  0  0  0  0
 21 54  1  0  0  0  0
 21 55  1  0  0  0  0
 22 21  1  0  0  0  0
 22 56  1  0  0  0  0
 22 57  1  0  0  0  0
 23 22  1  0  0  0  0
 23 26  1  0  0  0  0
 23 58  1  6  0  0  0
 24 23  1  0  0  0  0
 24 59  1  0  0  0  0
 24 60  1  0  0  0  0
 25 24  1  0  0  0  0
 25 20  1  0  0  0  0
 25 61  1  0  0  0  0
 25 62  1  0  0  0  0
 26 32  1  0  0  0  0
 26 27  1  0  0  0  0
 27 28  1  0  0  0  0
 27 63  1  0  0  0  0
 27 64  1  0  0  0  0
 28 29  1  0  0  0  0
 28 65  1  0  0  0  0
 28 66  1  0  0  0  0
 29 30  1  0  0  0  0
 30 67  1  0  0  0  0
 30 68  1  0  0  0  0
 30 69  1  0  0  0  0
 31 29  1  0  0  0  0
 31 70  1  0  0  0  0
 31 71  1  0  0  0  0
 32 31  1  0  0  0  0
 32 72  1  0  0  0  0
 32 73  1  0  0  0  0
 33 34  1  0  0  0  0
 33 35  1  0  0  0  0
 35 40  2  0  0  0  0
 35 36  1  0  0  0  0
 36 37  2  0  0  0  0
 36 74  1  0  0  0  0
 37 38  1  0  0  0  0
 37 75  1  0  0  0  0
 38 76  1  0  0  0  0
 39 38  2  0  0  0  0
 39 77  1  0  0  0  0
 40 39  1  0  0  0  0
 41 40  1  0  0  0  0
 41 44  1  0  0  0  0
 42 41  2  0  0  0  0
 43 41  2  0  0  0  0
 44 45  1  0  0  0  0
 44 78  1  0  0  0  0
 45 79  1  0  0  0  0
 45 80  1  0  0  0  0
 45 81  1  0  0  0  0
 46 44  1  0  0  0  0
 46 82  1  0  0  0  0
 46 83  1  0  0  0  0
 46 84  1  0  0  0  0
M  END
>  <MODEL>
1

>  <REMARK>
 VINA RESULT:      -8.8      0.000      0.000
  9 active torsions:
  status: ('A' for Active; 'I' for Inactive)
    1  A    between atoms: O_2  and  C_3 
    2  A    between atoms: C_4  and  N_5 
    3  A    between atoms: N_5  and  C_7 
    4  A    between atoms: C_13  and  N_14 
    5  A    between atoms: N_14  and  C_16 
    6  A    between atoms: C_21  and  S_22 
    7  A    between atoms: S_22  and  C_25 
    8  A    between atoms: C_32  and  N_33 
    9  A    between atoms: C_36  and  N_37 

>  <TORSDO>
F 9

$$$$
resistance_project/docking/8faf60323ce63d5a/P00533_WT/docked/molecule_0004_out.pdbqt
 OpenBabel09142609533D

 84 88  0  0  1  0  0  0  0  0999 V2000
   -4.2610   48.7290  -18.3860 C   0  0  1  0  0  0  0  0  0  0  0  0
   -4.8310   47.7610  -17.6290 N   0  0  0  0  0  0  0  0  0  0  0  0
   -5.8390   47.6080  -17.6400 H   0  0  0  0  0  0  0  0  0  0  0  0
   -4.0240   47.0080  -16.8660 C   0  0  0  0  0  0  0  0  0  0  0  0
   -2.6680   47.2150  -16.8520 C   0  0  0  0  0  0  0  0  0  0  0  0
   -1.7120   46.1880  -15.8010 Cl  0  0  0  0  0  0  0  0  0  0  0  0
   -2.0800   48.2180  -17.6350 C   0  0  0  0  0  0  0  0  0  0  0  0
   -2.9360   48.9360  -18.3770 N   0  0  0  0  0  0  0  0  0  0  0  0
   -2.5610   49.6810  -18.9640 H   0  0  0  0  0  0  0  0  0  0  0  0
   -5.0270   49.5770  -19.2480 N   0  0  0  0  0  0  0  0  0  0  0  0
   -5.8380   50.0660  -18.8680 H   0  0  0  0  0  0  0  0  0  0  0  0
   -4.6910   49.7590  -20.6170 C   0  0  0  0  0  0  0  0  0  0  0  0
   -4.3880   48.6800  -21.4100 C   0  0  0  0  0  0  0  0  0  0  0  0
   -4.0860   48.8810  -22.7460 C   0  0  0  0  0  0  0  0  0  0  0  0
   -4.0940   50.1800  -23.2700 C   0  0  0  0  0  0  0  0  0  0  0  0
   -4.3990   51.2760  -22.4730 C   0  0  0  0  0  0  0  0  0  0  0  0
   -4.7030   51.0650  -21.1240 C   0  0  0  0  0  0  0  0  0  0  0  0
   -4.3690   47.3790  -20.9380 O   0  0  0  0  0  0  0  0  0  0  0  0
   -3.4180   46.4190  -21.3450 C   0  0  0  0  0  0  0  0  0  0  0  0
   -3.7880   50.3070  -24.6600 N   0  0  0  0  0  0  0  0  0  0  0  0
   -4.3740   51.3330  -25.5010 C   0  0  0  0  0  0  0  0  0  0  0  0
   -3.2940   51.8170  -26.4330 C   0  0  0  0  0  0  0  0  0  0  0  0
   -1.9130   51.5360  -25.9970 C   0  0  2  0  0  0  0  0  0  0  0  0
   -1.6030   50.1720  -25.5320 C   0  0  0  0  0  0  0  0  0  0  0  0
   -2.8160   49.3350  -25.2010 C   0  0  0  0  0  0  0  0  0  0  0  0
   -1.1020   52.6050  -25.5820 N   0  0  0  0  0  0  0  0  0  0  0  0
   -0.3710   53.3110  -26.5780 C   0  0  0  0  0  0  0  0  0  0  0  0
    1.0230   52.7700  -26.8110 C   0  0  0  0  0  0  0  0  0  0  0  0
    1.2710   51.7660  -25.7710 N   0  0  0  0  0  0  0  0  0  0  0  0
    2.6560   51.4000  -25.8210 C   0  0  0  0  0  0  0  0  0  0  0  0
    1.0210   52.4570  -24.4950 C   0  0  0  0  0  0  0  0  0  0  0  0
   -0.4830   52.4410  -24.3140 C   0  0  0  0  0  0  0  0  0  0  0  0
   -0.7070   48.3730  -17.5500 N   0  0  0  0  0  0  0  0  0  0  0  0
   -0.1700   47.6160  -17.9730 H   0  0  0  0  0  0  0  0  0  0  0  0
    0.0780   49.3940  -16.9810 C   0  0  0  0  0  0  0  0  0  0  0  0
    0.5550   49.0760  -15.6890 C   0  0  0  0  0  0  0  0  0  0  0  0
    1.3230   49.9710  -15.0350 C   0  0  0  0  0  0  0  0  0  0  0  0
    1.6230   51.1630  -15.6340 C   0  0  0  0  0  0  0  0  0  0  0  0
    1.1740   51.4810  -16.8750 C   0  0  0  0  0  0  0  0  0  0  0  0
    0.3830   50.5890  -17.5820 C   0  0  0  0  0  0  0  0  0  0  0  0
   -0.0490   51.0360  -19.1990 S   0  0  0  0  0  0  0  0  0  0  0  0
   -1.5460   51.3500  -19.2300 O   0  0  0  0  0  0  0  0  0  0  0  0
    0.2510   49.9450  -20.1480 O   0  0  0  0  0  0  0  0  0  0  0  0
    0.8270   52.4940  -19.6770 C   0  0  0  0  0  0  0  0  0  0  0  0
    1.5780   52.2410  -20.9480 C   0  0  0  0  0  0  0  0  0  0  0  0
   -0.1300   53.6570  -19.8610 C   0  0  0  0  0  0  0  0  0  0  0  0
   -4.1736   45.9942  -17.1737 H   0  0  0  0  0  0  0  0  0  0  0  0
   -3.8563   48.0783  -23.3525 H   0  0  0  0  0  0  0  0  0  0  0  0
   -4.4013   52.2290  -22.8690 H   0  0  0  0  0  0  0  0  0  0  0  0
   -4.9333   51.8616  -20.5097 H   0  0  0  0  0  0  0  0  0  0  0  0
   -3.6091   45.4930  -20.8441 H   0  0  0  0  0  0  0  0  0  0  0  0
   -2.4356   46.7627  -21.0968 H   0  0  0  0  0  0  0  0  0  0  0  0
   -3.4883   46.2735  -22.4027 H   0  0  0  0  0  0  0  0  0  0  0  0
   -5.1877   50.9251  -26.0635 H   0  0  0  0  0  0  0  0  0  0  0  0
   -4.7527   52.1391  -24.9080 H   0  0  0  0  0  0  0  0  0  0  0  0
   -3.4426   51.3480  -27.3832 H   0  0  0  0  0  0  0  0  0  0  0  0
   -3.3841   52.8828  -26.4624 H   0  0  0  0  0  0  0  0  0  0  0  0
   -1.4587   51.4556  -26.9624 H   0  0  0  0  0  0  0  0  0  0  0  0
   -0.9984   50.2476  -24.6524 H   0  0  0  0  0  0  0  0  0  0  0  0
   -1.1037   49.6799  -26.3403 H   0  0  0  0  0  0  0  0  0  0  0  0
   -2.5762   48.5910  -24.4704 H   0  0  0  0  0  0  0  0  0  0  0  0
   -3.1940   48.8059  -26.0507 H   0  0  0  0  0  0  0  0  0  0  0  0
   -0.9133   53.2537  -27.4986 H   0  0  0  0  0  0  0  0  0  0  0  0
   -0.2608   54.3166  -26.2295 H   0  0  0  0  0  0  0  0  0  0  0  0
    1.7410   53.5600  -26.7382 H   0  0  0  0  0  0  0  0  0  0  0  0
    1.1079   52.3391  -27.7867 H   0  0  0  0  0  0  0  0  0  0  0  0
    2.8585   50.8955  -26.7426 H   0  0  0  0  0  0  0  0  0  0  0  0
    2.8831   50.7506  -25.0015 H   0  0  0  0  0  0  0  0  0  0  0  0
    3.2602   52.2807  -25.7562 H   0  0  0  0  0  0  0  0  0  0  0  0
    1.3818   53.4634  -24.5378 H   0  0  0  0  0  0  0  0  0  0  0  0
    1.5240   51.9799  -23.6800 H   0  0  0  0  0  0  0  0  0  0  0  0
   -0.7831   51.5073  -23.8861 H   0  0  0  0  0  0  0  0  0  0  0  0
   -0.7776   53.2364  -23.6617 H   0  0  0  0  0  0  0  0  0  0  0  0
    0.3188   48.1713  -15.2522 H   0  0  0  0  0  0  0  0  0  0  0  0
    1.6811   49.7582  -14.0908 H   0  0  0  0  0  0  0  0  0  0  0  0
    2.2099   51.8431  -15.1261 H   0  0  0  0  0  0  0  0  0  0  0  0
    1.4227   52.3908  -17.2938 H   0  0  0  0  0  0  0  0  0  0  0  0
    1.5200   52.7464  -18.9018 H   0  0  0  0  0  0  0  0  0  0  0  0
    0.8880   51.9883  -21.7257 H   0  0  0  0  0  0  0  0  0  0  0  0
    2.2632   51.4322  -20.8024 H   0  0  0  0  0  0  0  0  0  0  0  0
    2.1193   53.1218  -21.2238 H   0  0  0  0  0  0  0  0  0  0  0  0
   -0.8319   53.4225  -20.6338 H   0  0  0  0  0  0  0  0  0  0  0  0
    0.4211   54.5327  -20.1335 H   0  0  0  0  0  0  0  0  0  0  0  0
   -0.6541   53.8359  -18.9455 H   0  0  0  0  0  0  0  0  0  0  0  0
  1 10  1  6  0  0  0
  1  8  1  0  0  0  0
  1  2  1  0  0  0  0
  2  4  1  0  0  0  0
  3  2  1  0  0  0  0
  4  5  1  0  0  0  0
  4 47  1  0  0  0  0
  5  6  1  0  0  0  0
  7 33  1  0  0  0  0
  7  5  2  0  0  0  0
  8  7  1  0  0  0  0
  9  8  1  0  0  0  0
 10 11  1  0  0  0  0
 12 10  1  0  0  0  0
 13 18  1  0  0  0  0
 13 12  2  0  0  0  0
 14 13  1  0  0  0  0
 14 48  1  0  0  0  0
 15 14  2  0  0  0  0
 15 16  1  0  0  0  0
 16 17  2  0  0  0  0
 16 49  1  0  0  0  0
 17 12  1  0  0  0  0
 17 50  1  0  0  0  0
 19 18  1  0  0  0  0
 19 51  1  0  0  0  0
 19 52  1  0  0  0  0
 19 53  1  0  0  0  0
 20 15  1  0  0  0  0
 21 20  1  0  0  0  0
 21 54  1  0  0  0  0
 21 55  1  0  0  0  0
 22 23  1  0  0  0  0
 22 21  1  0  0  0  0
 22 56  1  0  0  0  0
 22 57  1  0  0  0  0
 23 26  1  0  0  0  0
 23 24  1  0  0  0  0
 23 58  1  6  0  0  0
 24 25  1  0  0  0  0
 24 59  1  0  0  0  0
 24 60  1  0  0  0  0
 25 20  1  0  0  0  0
 25 61  1  0  0  0  0
 25 62  1  0  0  0  0
 26 32  1  0  0  0  0
 27 26  1  0  0  0  0
 27 63  1  0  0  0  0
 27 64  1  0  0  0  0
 28 27  1  0  0  0  0
 28 29  1  0  0  0  0
 28 65  1  0  0  0  0
 28 66  1  0  0  0  0
 29 31  1  0  0  0  0
 30 29  1  0  0  0  0
 30 67  1  0  0  0  0
 30 68  1  0  0  0  0
 30 69  1  0  0  0  0
 31 32  1  0  0  0  0
 31 70  1  0  0  0  0
 31 71  1  0  0  0  0
 32 72  1  0  0  0  0
 32 73  1  0  0  0  0
 33 35  1  0  0  0  0
 34 33  1  0  0  0  0
 35 36  1  0  0  0  0
 36 37  2  0  0  0  0
 36 74  1  0  0  0  0
 37 75  1  0  0  0  0
 38 37  1  0  0  0  0
 38 76  1  0  0  0  0
 39 38  2  0  0  0  0
 39 77  1  0  0  0  0
 40 35  2  0  0  0  0
 40 39  1  0  0  0  0
 41 40  1  0  0  0  0
 42 41  2  0  0  0  0
 43 41  2  0  0  0  0
 44 41  1  0  0  0  0
 44 78  1  0  0  0  0
 45 44  1  0  0  0  0
 45 79  1  0  0  0  0
 45 80  1  0  0  0  0
 45 81  1  0  0  0  0
 46 44  1  0  0  0  0
 46 82  1  0  0  0  0
 46 83  1  0  0  0  0
 46 84  1  0  0  0  0
M  END
>  <REMARK>
 VINA RESULT:      -8.7      4.219      7.607
  9 active torsions:
  status: ('A' for Active; 'I' for Inactive)
    1  A    between atoms: O_2  and  C_3 
    2  A    between atoms: C_4  and  N_5 
    3  A    between atoms: N_5  and  C_7 
    4  A    between atoms: C_13  and  N_14 
    5  A    between atoms: N_14  and  C_16 
    6  A    between atoms: C_21  and  S_22 
    7  A    between atoms: S_22  and  C_25 
    8  A    between atoms: C_32  and  N_33 
    9  A    between atoms: C_36  and  N_37 

>  <TORSDO>
F 9

$$$$
resistance_project/docking/8faf60323ce63d5a/P00533_WT/docked/molecule_0004_out.pdbqt
 OpenBabel09142609533D

 84 88  0  0  1  0  0  0  0  0999 V2000
   -0.3350   49.4890  -19.7790 C   0  0  1  0  0  0  0  0  0  0  0  0
    0.1350   50.2110  -18.7350 N   0  0  0  0  0  0  0  0  0  0  0  0
    0.3660   49.7660  -17.8460 H   0  0  0  0  0  0  0  0  0  0  0  0
    0.2890   51.5330  -18.9080 C   0  0  0  0  0  0  0  0  0  0  0  0
   -0.0220   52.1300  -20.1030 C   0  0  0  0  0  0  0  0  0  0  0  0
    0.1970   53.8670  -20.2110 Cl  0  0  0  0  0  0  0  0  0  0  0  0
   -0.5080   51.3810  -21.1820 C   0  0  0  0  0  0  0  0  0  0  0  0
   -0.6410   50.0670  -20.9500 N   0  0  0  0  0  0  0  0  0  0  0  0
   -0.9930   49.4750  -21.7020 H   0  0  0  0  0  0  0  0  0  0  0  0
   -0.5210   48.0710  -19.7070 N   0  0  0  0  0  0  0  0  0  0  0  0
    0.2080   47.4980  -19.2800 H   0  0  0  0  0  0  0  0  0  0  0  0
   -1.6910   47.4390  -20.2110 C   0  0  0  0  0  0  0  0  0  0  0  0
   -2.8100   47.3160  -19.4260 C   0  0  0  0  0  0  0  0  0  0  0  0
   -3.9440   46.7160  -19.9470 C   0  0  0  0  0  0  0  0  0  0  0  0
   -3.9330   46.2440  -21.2660 C   0  0  0  0  0  0  0  0  0  0  0  0
   -2.8030   46.3650  -22.0650 C   0  0  0  0  0  0  0  0  0  0  0  0
   -1.6610   46.9710  -21.5310 C   0  0  0  0  0  0  0  0  0  0  0  0
   -2.8680   47.7680  -18.1190 O   0  0  0  0  0  0  0  0  0  0  0  0
   -3.4230   49.0130  -17.7530 C   0  0  0  0  0  0  0  0  0  0  0  0
   -5.1440   45.6520  -21.7390 N   0  0  0  0  0  0  0  0  0  0  0  0
   -6.2350   45.2840  -20.8560 C   0  0  0  0  0  0  0  0  0  0  0  0
   -7.5190   45.6280  -21.5650 C   0  0  0  0  0  0  0  0  0  0  0  0
   -7.3920   46.6120  -22.6570 C   0  0  2  0  0  0  0  0  0  0  0  0
   -6.3120   46.4120  -23.6400 C   0  0  0  0  0  0  0  0  0  0  0  0
   -5.2370   45.4450  -23.1990 C   0  0  0  0  0  0  0  0  0  0  0  0
   -7.9300   47.8970  -22.4790 N   0  0  0  0  0  0  0  0  0  0  0  0
   -7.4790   48.9330  -23.3420 C   0  0  0  0  0  0  0  0  0  0  0  0
   -6.2960   49.7080  -22.7990 C   0  0  0  0  0  0  0  0  0  0  0  0
   -6.0900   49.2600  -21.4180 N   0  0  0  0  0  0  0  0  0  0  0  0
   -5.1310   50.1290  -20.8020 C   0  0  0  0  0  0  0  0  0  0  0  0
   -7.3860   49.4520  -20.7480 C   0  0  0  0  0  0  0  0  0  0  0  0
   -8.2240   48.2500  -21.1350 C   0  0  0  0  0  0  0  0  0  0  0  0
   -0.8150   52.0630  -22.3480 N   0  0  0  0  0  0  0  0  0  0  0  0
   -1.4660   52.8380  -22.2240 H   0  0  0  0  0  0  0  0  0  0  0  0
   -0.3850   51.8720  -23.6750 C   0  0  0  0  0  0  0  0  0  0  0  0
    0.9070   52.3880  -23.9230 C   0  0  0  0  0  0  0  0  0  0  0  0
    1.4370   52.2650  -25.1570 C   0  0  0  0  0  0  0  0  0  0  0  0
    0.7150   51.6450  -26.1390 C   0  0  0  0  0  0  0  0  0  0  0  0
   -0.5260   51.1420  -25.9150 C   0  0  0  0  0  0  0  0  0  0  0  0
   -1.1060   51.2460  -24.6600 C   0  0  0  0  0  0  0  0  0  0  0  0
   -2.6440   50.4780  -24.4420 S   0  0  0  0  0  0  0  0  0  0  0  0
   -3.7310   51.5530  -24.4770 O   0  0  0  0  0  0  0  0  0  0  0  0
   -2.6970   49.7570  -23.1550 O   0  0  0  0  0  0  0  0  0  0  0  0
   -2.9470   49.3470  -25.7660 C   0  0  0  0  0  0  0  0  0  0  0  0
   -2.3660   48.0080  -25.4320 C   0  0  0  0  0  0  0  0  0  0  0  0
   -4.4370   49.2180  -26.0280 C   0  0  0  0  0  0  0  0  0  0  0  0
   -0.3143   52.0095  -18.1638 H   0  0  0  0  0  0  0  0  0  0  0  0
   -4.7920   46.6171  -19.3672 H   0  0  0  0  0  0  0  0  0  0  0  0
   -2.8061   46.0140  -23.0355 H   0  0  0  0  0  0  0  0  0  0  0  0
   -0.8074   47.0720  -22.1021 H   0  0  0  0  0  0  0  0  0  0  0  0
   -3.3530   49.1368  -16.6925 H   0  0  0  0  0  0  0  0  0  0  0  0
   -4.4507   49.0462  -18.0489 H   0  0  0  0  0  0  0  0  0  0  0  0
   -2.8860   49.7999  -18.2401 H   0  0  0  0  0  0  0  0  0  0  0  0
   -6.1648   45.8312  -19.9392 H   0  0  0  0  0  0  0  0  0  0  0  0
   -6.1985   44.2404  -20.6225 H   0  0  0  0  0  0  0  0  0  0  0  0
   -7.9206   44.7262  -21.9777 H   0  0  0  0  0  0  0  0  0  0  0  0
   -8.1506   46.0815  -20.8300 H   0  0  0  0  0  0  0  0  0  0  0  0
   -8.1991   46.2679  -23.2694 H   0  0  0  0  0  0  0  0  0  0  0  0
   -6.7470   46.0393  -24.5438 H   0  0  0  0  0  0  0  0  0  0  0  0
   -5.8351   47.3614  -23.7669 H   0  0  0  0  0  0  0  0  0  0  0  0
   -4.3053   45.6698  -23.6747 H   0  0  0  0  0  0  0  0  0  0  0  0
   -5.4648   44.4318  -23.4567 H   0  0  0  0  0  0  0  0  0  0  0  0
   -7.1954   48.4947  -24.2760 H   0  0  0  0  0  0  0  0  0  0  0  0
   -8.2865   49.6275  -23.4445 H   0  0  0  0  0  0  0  0  0  0  0  0
   -6.5037   50.7575  -22.8181 H   0  0  0  0  0  0  0  0  0  0  0  0
   -5.4216   49.5365  -23.3914 H   0  0  0  0  0  0  0  0  0  0  0  0
   -4.1800   50.0039  -21.2762 H   0  0  0  0  0  0  0  0  0  0  0  0
   -5.0461   49.8871  -19.7632 H   0  0  0  0  0  0  0  0  0  0  0  0
   -5.4510   51.1446  -20.9067 H   0  0  0  0  0  0  0  0  0  0  0  0
   -7.8505   50.3555  -21.0841 H   0  0  0  0  0  0  0  0  0  0  0  0
   -7.2759   49.5341  -19.6868 H   0  0  0  0  0  0  0  0  0  0  0  0
   -7.9933   47.4286  -20.4893 H   0  0  0  0  0  0  0  0  0  0  0  0
   -9.2631   48.4877  -21.0419 H   0  0  0  0  0  0  0  0  0  0  0  0
    1.4379   52.8527  -23.1699 H   0  0  0  0  0  0  0  0  0  0  0  0
    2.3789   52.6354  -25.3584 H   0  0  0  0  0  0  0  0  0  0  0  0
    1.1269   51.5566  -27.0811 H   0  0  0  0  0  0  0  0  0  0  0  0
   -1.0396   50.6804  -26.6819 H   0  0  0  0  0  0  0  0  0  0  0  0
   -2.4795   49.7230  -26.6520 H   0  0  0  0  0  0  0  0  0  0  0  0
   -2.8310   47.6284  -24.5462 H   0  0  0  0  0  0  0  0  0  0  0  0
   -1.3133   48.1069  -25.2679 H   0  0  0  0  0  0  0  0  0  0  0  0
   -2.5386   47.3319  -26.2432 H   0  0  0  0  0  0  0  0  0  0  0  0
   -4.9221   48.8426  -25.1513 H   0  0  0  0  0  0  0  0  0  0  0  0
   -4.5989   48.5426  -26.8420 H   0  0  0  0  0  0  0  0  0  0  0  0
   -4.8401   50.1778  -26.2754 H   0  0  0  0  0  0  0  0  0  0  0  0
  1 10  1  6  0  0  0
  1  2  1  0  0  0  0
  2  3  1  0  0  0  0
  4  2  1  0  0  0  0
  4 47  1  0  0  0  0
  5  4  1  0  0  0  0
  6  5  1  0  0  0  0
  7  8  1  0  0  0  0
  7  5  2  0  0  0  0
  8  1  1  0  0  0  0
  9  8  1  0  0  0  0
 10 11  1  0  0  0  0
 12 10  1  0  0  0  0
 12 13  2  0  0  0  0
 13 18  1  0  0  0  0
 14 13  1  0  0  0  0
 14 48  1  0  0  0  0
 15 14  2  0  0  0  0
 16 17  2  0  0  0  0
 16 15  1  0  0  0  0
 16 49  1  0  0  0  0
 17 12  1  0  0  0  0
 17 50  1  0  0  0  0
 18 19  1  0  0  0  0
 19 51  1  0  0  0  0
 19 52  1  0  0  0  0
 19 53  1  0  0  0  0
 20 15  1  0  0  0  0
 20 21  1  0  0  0  0
 21 54  1  0  0  0  0
 21 55  1  0  0  0  0
 22 21  1  0  0  0  0
 22 56  1  0  0  0  0
 22 57  1  0  0  0  0
 23 26  1  0  0  0  0
 23 22  1  0  0  0  0
 23 58  1  6  0  0  0
 24 25  1  0  0  0  0
 24 23  1  0  0  0  0
 24 59  1  0  0  0  0
 24 60  1  0  0  0  0
 25 20  1  0  0  0  0
 25 61  1  0  0  0  0
 25 62  1  0  0  0  0
 26 32  1  0  0  0  0
 27 28  1  0  0  0  0
 27 26  1  0  0  0  0
 27 63  1  0  0  0  0
 27 64  1  0  0  0  0
 28 29  1  0  0  0  0
 28 65  1  0  0  0  0
 28 66  1  0  0  0  0
 29 30  1  0  0  0  0
 29 31  1  0  0  0  0
 30 67  1  0  0  0  0
 30 68  1  0  0  0  0
 30 69  1  0  0  0  0
 31 70  1  0  0  0  0
 31 71  1  0  0  0  0
 32 31  1  0  0  0  0
 32 72  1  0  0  0  0
 32 73  1  0  0  0  0
 33 34  1  0  0  0  0
 33  7  1  0  0  0  0
 35 33  1  0  0  0  0
 36 35  1  0  0  0  0
 36 74  1  0  0  0  0
 37 36  2  0  0  0  0
 37 75  1  0  0  0  0
 38 39  2  0  0  0  0
 38 37  1  0  0  0  0
 38 76  1  0  0  0  0
 39 40  1  0  0  0  0
 39 77  1  0  0  0  0
 40 41  1  0  0  0  0
 40 35  2  0  0  0  0
 41 43  2  0  0  0  0
 42 41  2  0  0  0  0
 44 45  1  0  0  0  0
 44 41  1  0  0  0  0
 44 78  1  0  0  0  0
 45 79  1  0  0  0  0
 45 80  1  0  0  0  0
 45 81  1  0  0  0  0
 46 44  1  0  0  0  0
 46 82  1  0  0  0  0
 46 83  1  0  0  0  0
 46 84  1  0  0  0  0
M  END
>  <REMARK>
 VINA RESULT:      -8.4      5.287      8.906
  9 active torsions:
  status: ('A' for Active; 'I' for Inactive)
    1  A    between atoms: O_2  and  C_3 
    2  A    between atoms: C_4  and  N_5 
    3  A    between atoms: N_5  and  C_7 
    4  A    between atoms: C_13  and  N_14 
    5  A    between atoms: N_14  and  C_16 
    6  A    between atoms: C_21  and  S_22 
    7  A    between atoms: S_22  and  C_25 
    8  A    between atoms: C_32  and  N_33 
    9  A    between atoms: C_36  and  N_37 

>  <TORSDO>
F 9

$$$$
resistance_project/docking/8faf60323ce63d5a/P00533_WT/docked/molecule_0004_out.pdbqt
 OpenBabel09142609533D

 84 88  0  0  1  0  0  0  0  0999 V2000
   -4.1110   51.5920  -25.0700 C   0  0  1  0  0  0  0  0  0  0  0  0
   -3.8790   52.0600  -26.3200 N   0  0  0  0  0  0  0  0  0  0  0  0
   -4.6460   52.2360  -26.9680 H   0  0  0  0  0  0  0  0  0  0  0  0
   -2.6060   52.2870  -26.6760 C   0  0  0  0  0  0  0  0  0  0  0  0
   -1.5750   52.0510  -25.8030 C   0  0  0  0  0  0  0  0  0  0  0  0
    0.0520   52.3620  -26.3810 Cl  0  0  0  0  0  0  0  0  0  0  0  0
   -1.8160   51.5660  -24.5100 C   0  0  0  0  0  0  0  0  0  0  0  0
   -3.1070   51.3580  -24.2120 N   0  0  0  0  0  0  0  0  0  0  0  0
   -3.3390   51.0040  -23.2840 H   0  0  0  0  0  0  0  0  0  0  0  0
   -5.4320   51.3310  -24.5830 N   0  0  0  0  0  0  0  0  0  0  0  0
   -6.1240   52.0810  -24.6040 H   0  0  0  0  0  0  0  0  0  0  0  0
   -5.8080   50.0590  -24.0730 C   0  0  0  0  0  0  0  0  0  0  0  0
   -5.3280   48.9080  -24.6460 C   0  0  0  0  0  0  0  0  0  0  0  0
   -5.6920   47.6810  -24.1170 C   0  0  0  0  0  0  0  0  0  0  0  0
   -6.5430   47.6320  -23.0060 C   0  0  0  0  0  0  0  0  0  0  0  0
   -7.0330   48.7930  -22.4220 C   0  0  0  0  0  0  0  0  0  0  0  0
   -6.6620   50.0290  -22.9630 C   0  0  0  0  0  0  0  0  0  0  0  0
   -4.4840   48.9070  -25.7430 O   0  0  0  0  0  0  0  0  0  0  0  0
   -3.7120   47.7900  -26.1270 C   0  0  0  0  0  0  0  0  0  0  0  0
   -6.8620   46.3320  -22.5060 N   0  0  0  0  0  0  0  0  0  0  0  0
   -5.8690   45.4550  -21.9140 C   0  0  0  0  0  0  0  0  0  0  0  0
   -6.5230   44.7670  -20.7430 C   0  0  0  0  0  0  0  0  0  0  0  0
   -7.7260   45.4350  -20.2110 C   0  0  2  0  0  0  0  0  0  0  0  0
   -8.7520   45.8730  -21.1740 C   0  0  0  0  0  0  0  0  0  0  0  0
   -8.2790   45.9270  -22.6090 C   0  0  0  0  0  0  0  0  0  0  0  0
   -7.6580   46.0510  -18.9510 N   0  0  0  0  0  0  0  0  0  0  0  0
   -8.2180   47.3520  -18.8160 C   0  0  0  0  0  0  0  0  0  0  0  0
   -7.2260   48.4710  -19.0550 C   0  0  0  0  0  0  0  0  0  0  0  0
   -5.9020   47.8510  -19.1730 N   0  0  0  0  0  0  0  0  0  0  0  0
   -4.9170   48.8910  -19.1710 C   0  0  0  0  0  0  0  0  0  0  0  0
   -5.7350   47.0530  -17.9470 C   0  0  0  0  0  0  0  0  0  0  0  0
   -6.4890   45.7630  -18.1970 C   0  0  0  0  0  0  0  0  0  0  0  0
   -0.7190   51.3370  -23.6970 N   0  0  0  0  0  0  0  0  0  0  0  0
   -0.1810   50.5040  -23.9400 H   0  0  0  0  0  0  0  0  0  0  0  0
   -0.2160   52.0520  -22.5940 C   0  0  0  0  0  0  0  0  0  0  0  0
    0.7180   53.0500  -22.9540 C   0  0  0  0  0  0  0  0  0  0  0  0
    1.2710   53.8090  -21.9870 C   0  0  0  0  0  0  0  0  0  0  0  0
    0.9170   53.5990  -20.6830 C   0  0  0  0  0  0  0  0  0  0  0  0
    0.0200   52.6460  -20.3220 C   0  0  0  0  0  0  0  0  0  0  0  0
   -0.5730   51.8450  -21.2850 C   0  0  0  0  0  0  0  0  0  0  0  0
   -1.7870   50.7340  -20.7410 S   0  0  0  0  0  0  0  0  0  0  0  0
   -3.1210   51.1270  -21.3740 O   0  0  0  0  0  0  0  0  0  0  0  0
   -1.9050   50.7600  -19.2700 O   0  0  0  0  0  0  0  0  0  0  0  0
   -1.3880   49.0970  -21.2730 C   0  0  0  0  0  0  0  0  0  0  0  0
   -1.0120   48.2570  -20.0920 C   0  0  0  0  0  0  0  0  0  0  0  0
   -2.5620   48.4710  -22.0040 C   0  0  0  0  0  0  0  0  0  0  0  0
   -2.5454   53.3207  -26.9458 H   0  0  0  0  0  0  0  0  0  0  0  0
   -5.3383   46.8082  -24.5390 H   0  0  0  0  0  0  0  0  0  0  0  0
   -7.6597   48.7449  -21.6035 H   0  0  0  0  0  0  0  0  0  0  0  0
   -7.0130   50.9070  -22.5496 H   0  0  0  0  0  0  0  0  0  0  0  0
   -3.1437   48.0325  -27.0006 H   0  0  0  0  0  0  0  0  0  0  0  0
   -4.3595   46.9653  -26.3403 H   0  0  0  0  0  0  0  0  0  0  0  0
   -3.0474   47.5252  -25.3313 H   0  0  0  0  0  0  0  0  0  0  0  0
   -5.0278   46.0261  -21.5805 H   0  0  0  0  0  0  0  0  0  0  0  0
   -5.5203   44.7391  -22.6287 H   0  0  0  0  0  0  0  0  0  0  0  0
   -5.8038   44.7031  -19.9533 H   0  0  0  0  0  0  0  0  0  0  0  0
   -6.8490   43.8139  -21.1040 H   0  0  0  0  0  0  0  0  0  0  0  0
   -8.2399   44.5673  -19.8533 H   0  0  0  0  0  0  0  0  0  0  0  0
   -9.5755   45.1921  -21.1185 H   0  0  0  0  0  0  0  0  0  0  0  0
   -9.0186   46.8730  -20.9025 H   0  0  0  0  0  0  0  0  0  0  0  0
   -8.3670   44.9675  -23.0744 H   0  0  0  0  0  0  0  0  0  0  0  0
   -8.8564   46.6009  -23.2068 H   0  0  0  0  0  0  0  0  0  0  0  0
   -9.0155   47.4512  -19.5225 H   0  0  0  0  0  0  0  0  0  0  0  0
   -8.5542   47.4437  -17.8043 H   0  0  0  0  0  0  0  0  0  0  0  0
   -7.4698   48.9919  -19.9573 H   0  0  0  0  0  0  0  0  0  0  0  0
   -7.2468   49.1782  -18.2523 H   0  0  0  0  0  0  0  0  0  0  0  0
   -5.0220   49.4834  -20.0559 H   0  0  0  0  0  0  0  0  0  0  0  0
   -3.9395   48.4564  -19.1466 H   0  0  0  0  0  0  0  0  0  0  0  0
   -5.0537   49.5101  -18.3090 H   0  0  0  0  0  0  0  0  0  0  0  0
   -6.1471   47.5698  -17.1056 H   0  0  0  0  0  0  0  0  0  0  0  0
   -4.7032   46.8733  -17.7281 H   0  0  0  0  0  0  0  0  0  0  0  0
   -5.8678   45.0841  -18.7430 H   0  0  0  0  0  0  0  0  0  0  0  0
   -6.7610   45.3158  -17.2638 H   0  0  0  0  0  0  0  0  0  0  0  0
    0.9730   53.1955  -23.9434 H   0  0  0  0  0  0  0  0  0  0  0  0
    1.9557   54.5423  -22.2287 H   0  0  0  0  0  0  0  0  0  0  0  0
    1.3458   54.1842  -19.9491 H   0  0  0  0  0  0  0  0  0  0  0  0
   -0.2212   52.5176  -19.3268 H   0  0  0  0  0  0  0  0  0  0  0  0
   -0.5588   49.1490  -21.9473 H   0  0  0  0  0  0  0  0  0  0  0  0
   -1.8390   48.2026  -19.4152 H   0  0  0  0  0  0  0  0  0  0  0  0
   -0.1725   48.6961  -19.5948 H   0  0  0  0  0  0  0  0  0  0  0  0
   -0.7559   47.2719  -20.4220 H   0  0  0  0  0  0  0  0  0  0  0  0
   -3.4020   48.4107  -21.3440 H   0  0  0  0  0  0  0  0  0  0  0  0
   -2.2949   47.4882  -22.3320 H   0  0  0  0  0  0  0  0  0  0  0  0
   -2.8166   49.0729  -22.8513 H   0  0  0  0  0  0  0  0  0  0  0  0
  1 10  1  1  0  0  0
  1  8  1  0  0  0  0
  2  1  1  0  0  0  0
  3  2  1  0  0  0  0
  4  2  1  0  0  0  0
  4  5  1  0  0  0  0
  4 47  1  0  0  0  0
  5  7  2  0  0  0  0
  6  5  1  0  0  0  0
  7  8  1  0  0  0  0
  7 33  1  0  0  0  0
  8  9  1  0  0  0  0
 10 12  1  0  0  0  0
 11 10  1  0  0  0  0
 12 17  2  0  0  0  0
 13 14  2  0  0  0  0
 13 12  1  0  0  0  0
 14 15  1  0  0  0  0
 14 48  1  0  0  0  0
 15 20  1  0  0  0  0
 15 16  2  0  0  0  0
 16 49  1  0  0  0  0
 17 16  1  0  0  0  0
 17 50  1  0  0  0  0
 18 13  1  0  0  0  0
 19 18  1  0  0  0  0
 19 51  1  0  0  0  0
 19 52  1  0  0  0  0
 19 53  1  0  0  0  0
 20 21  1  0  0  0  0
 21 22  1  0  0  0  0
 21 54  1  0  0  0  0
 21 55  1  0  0  0  0
 22 23  1  0  0  0  0
 22 56  1  0  0  0  0
 22 57  1  0  0  0  0
 23 26  1  0  0  0  0
 23 58  1  1  0  0  0
 24 23  1  0  0  0  0
 24 59  1  0  0  0  0
 24 60  1  0  0  0  0
 25 20  1  0  0  0  0
 25 24  1  0  0  0  0
 25 61  1  0  0  0  0
 25 62  1  0  0  0  0
 26 27  1  0  0  0  0
 26 32  1  0  0  0  0
 27 63  1  0  0  0  0
 27 64  1  0  0  0  0
 28 27  1  0  0  0  0
 28 65  1  0  0  0  0
 28 66  1  0  0  0  0
 29 30  1  0  0  0  0
 29 28  1  0  0  0  0
 29 31  1  0  0  0  0
 30 67  1  0  0  0  0
 30 68  1  0  0  0  0
 30 69  1  0  0  0  0
 31 70  1  0  0  0  0
 31 71  1  0  0  0  0
 32 31  1  0  0  0  0
 32 72  1  0  0  0  0
 32 73  1  0  0  0  0
 33 35  1  0  0  0  0
 34 33  1  0  0  0  0
 35 40  1  0  0  0  0
 36 35  2  0  0  0  0
 36 37  1  0  0  0  0
 36 74  1  0  0  0  0
 37 38  2  0  0  0  0
 37 75  1  0  0  0  0
 38 39  1  0  0  0  0
 38 76  1  0  0  0  0
 39 77  1  0  0  0  0
 40 41  1  0  0  0  0
 40 39  2  0  0  0  0
 41 43  2  0  0  0  0
 42 41  2  0  0  0  0
 44 41  1  0  0  0  0
 44 45  1  0  0  0  0
 44 78  1  0  0  0  0
 45 79  1  0  0  0  0
 45 80  1  0  0  0  0
 45 81  1  0  0  0  0
 46 44  1  0  0  0  0
 46 82  1  0  0  0  0
 46 83  1  0  0  0  0
 46 84  1  0  0  0  0
M  END
>  <REMARK>
 VINA RESULT:      -8.0      6.346      9.118
  9 active torsions:
  status: ('A' for Active; 'I' for Inactive)
    1  A    between atoms: O_2  and  C_3 
    2  A    between atoms: C_4  and  N_5 
    3  A    between atoms: N_5  and  C_7 
    4  A    between atoms: C_13  and  N_14 
    5  A    between atoms: N_14  and  C_16 
    6  A    between atoms: C_21  and  S_22 
    7  A    between atoms: S_22  and  C_25 
    8  A    between atoms: C_32  and  N_33 
    9  A    between atoms: C_36  and  N_37 

>  <TORSDO>
F 9

$$$$
resistance_project/docking/8faf60323ce63d5a/P00533_WT/docked/molecule_0004_out.pdbqt
 OpenBabel09142609533D

 84 88  0  0  1  0  0  0  0  0999 V2000
   -0.2460   49.5100  -19.9480 C   0  0  1  0  0  0  0  0  0  0  0  0
    0.4000   50.1590  -18.9510 N   0  0  0  0  0  0  0  0  0  0  0  0
    0.6710   49.6750  -18.0950 H   0  0  0  0  0  0  0  0  0  0  0  0
    0.6750   51.4610  -19.1280 C   0  0  0  0  0  0  0  0  0  0  0  0
    0.3110   52.1100  -20.2800 C   0  0  0  0  0  0  0  0  0  0  0  0
    0.7000   53.8160  -20.3950 Cl  0  0  0  0  0  0  0  0  0  0  0  0
   -0.3580   51.4360  -21.3100 C   0  0  0  0  0  0  0  0  0  0  0  0
   -0.6050   50.1390  -21.0770 N   0  0  0  0  0  0  0  0  0  0  0  0
   -1.0920   49.6020  -21.7940 H   0  0  0  0  0  0  0  0  0  0  0  0
   -0.5730   48.1180  -19.8700 N   0  0  0  0  0  0  0  0  0  0  0  0
    0.1030   47.4740  -19.4580 H   0  0  0  0  0  0  0  0  0  0  0  0
   -1.8110   47.6080  -20.3470 C   0  0  0  0  0  0  0  0  0  0  0  0
   -2.9740   47.8440  -19.6580 C   0  0  0  0  0  0  0  0  0  0  0  0
   -4.1710   47.3550  -20.1550 C   0  0  0  0  0  0  0  0  0  0  0  0
   -4.1770   46.6270  -21.3520 C   0  0  0  0  0  0  0  0  0  0  0  0
   -3.0030   46.3840  -22.0540 C   0  0  0  0  0  0  0  0  0  0  0  0
   -1.7980   46.8810  -21.5450 C   0  0  0  0  0  0  0  0  0  0  0  0
   -3.0180   48.5580  -18.4740 O   0  0  0  0  0  0  0  0  0  0  0  0
   -3.5950   49.8410  -18.3610 C   0  0  0  0  0  0  0  0  0  0  0  0
   -5.4500   46.1690  -21.8110 N   0  0  0  0  0  0  0  0  0  0  0  0
   -6.6920   46.8400  -21.4770 C   0  0  0  0  0  0  0  0  0  0  0  0
   -7.5620   46.8060  -22.7070 C   0  0  0  0  0  0  0  0  0  0  0  0
   -6.8490   46.5760  -23.9780 C   0  0  2  0  0  0  0  0  0  0  0  0
   -5.8670   45.4780  -24.0250 C   0  0  0  0  0  0  0  0  0  0  0  0
   -5.4350   44.9670  -22.6700 C   0  0  0  0  0  0  0  0  0  0  0  0
   -6.7460   47.6310  -24.8980 N   0  0  0  0  0  0  0  0  0  0  0  0
   -7.7270   48.6600  -24.8440 C   0  0  0  0  0  0  0  0  0  0  0  0
   -8.9160   48.4170  -25.7500 C   0  0  0  0  0  0  0  0  0  0  0  0
   -8.5930   47.2490  -26.5750 N   0  0  0  0  0  0  0  0  0  0  0  0
   -9.5920   47.1300  -27.5950 C   0  0  0  0  0  0  0  0  0  0  0  0
   -7.3090   47.5700  -27.2190 C   0  0  0  0  0  0  0  0  0  0  0  0
   -6.2480   47.2730  -26.1790 C   0  0  0  0  0  0  0  0  0  0  0  0
   -0.7070   52.1690  -22.4330 N   0  0  0  0  0  0  0  0  0  0  0  0
   -1.3370   52.9500  -22.2480 H   0  0  0  0  0  0  0  0  0  0  0  0
   -0.3440   52.0230  -23.7860 C   0  0  0  0  0  0  0  0  0  0  0  0
    1.0400   52.2030  -24.0140 C   0  0  0  0  0  0  0  0  0  0  0  0
    1.5170   52.0850  -25.2700 C   0  0  0  0  0  0  0  0  0  0  0  0
    0.6560   51.7950  -26.2920 C   0  0  0  0  0  0  0  0  0  0  0  0
   -0.6750   51.6170  -26.0860 C   0  0  0  0  0  0  0  0  0  0  0  0
   -1.2060   51.7270  -24.8110 C   0  0  0  0  0  0  0  0  0  0  0  0
   -2.8930   51.3740  -24.6310 S   0  0  0  0  0  0  0  0  0  0  0  0
   -3.5320   51.3490  -26.0200 O   0  0  0  0  0  0  0  0  0  0  0  0
   -3.5590   52.3910  -23.7940 O   0  0  0  0  0  0  0  0  0  0  0  0
   -3.1010   49.7780  -23.9020 C   0  0  0  0  0  0  0  0  0  0  0  0
   -4.4120   49.7170  -23.1800 C   0  0  0  0  0  0  0  0  0  0  0  0
   -3.0400   48.6940  -24.9630 C   0  0  0  0  0  0  0  0  0  0  0  0
    0.2031   51.9837  -18.3224 H   0  0  0  0  0  0  0  0  0  0  0  0
   -5.0528   47.5259  -19.6467 H   0  0  0  0  0  0  0  0  0  0  0  0
   -3.0193   45.8467  -22.9349 H   0  0  0  0  0  0  0  0  0  0  0  0
   -0.9110   46.7143  -22.0455 H   0  0  0  0  0  0  0  0  0  0  0  0
   -3.5071   50.1839  -17.3513 H   0  0  0  0  0  0  0  0  0  0  0  0
   -4.6289   49.7923  -18.6324 H   0  0  0  0  0  0  0  0  0  0  0  0
   -3.0865   50.5195  -19.0136 H   0  0  0  0  0  0  0  0  0  0  0  0
   -7.1777   46.3318  -20.6703 H   0  0  0  0  0  0  0  0  0  0  0  0
   -6.5081   47.8483  -21.1698 H   0  0  0  0  0  0  0  0  0  0  0  0
   -8.2786   46.0211  -22.5833 H   0  0  0  0  0  0  0  0  0  0  0  0
   -8.0006   47.7788  -22.7859 H   0  0  0  0  0  0  0  0  0  0  0  0
   -7.6329   46.0791  -24.5104 H   0  0  0  0  0  0  0  0  0  0  0  0
   -4.9986   45.8279  -24.5429 H   0  0  0  0  0  0  0  0  0  0  0  0
   -6.3475   44.6602  -24.5203 H   0  0  0  0  0  0  0  0  0  0  0  0
   -4.4522   44.5466  -22.7181 H   0  0  0  0  0  0  0  0  0  0  0  0
   -6.0721   44.1904  -22.3014 H   0  0  0  0  0  0  0  0  0  0  0  0
   -8.0801   48.7373  -23.8369 H   0  0  0  0  0  0  0  0  0  0  0  0
   -7.2555   49.5591  -25.1819 H   0  0  0  0  0  0  0  0  0  0  0  0
   -9.7906   48.2233  -25.1648 H   0  0  0  0  0  0  0  0  0  0  0  0
   -9.1130   49.2735  -26.3603 H   0  0  0  0  0  0  0  0  0  0  0  0
   -9.3747   46.2817  -28.2098 H   0  0  0  0  0  0  0  0  0  0  0  0
   -9.5949   48.0150  -28.1964 H   0  0  0  0  0  0  0  0  0  0  0  0
  -10.5525   47.0044  -27.1406 H   0  0  0  0  0  0  0  0  0  0  0  0
   -7.2791   48.6022  -27.4992 H   0  0  0  0  0  0  0  0  0  0  0  0
   -7.1597   46.9997  -28.1119 H   0  0  0  0  0  0  0  0  0  0  0  0
   -5.3665   47.8405  -26.3931 H   0  0  0  0  0  0  0  0  0  0  0  0
   -6.0061   46.2308  -26.1955 H   0  0  0  0  0  0  0  0  0  0  0  0
    1.6756   52.4214  -23.2309 H   0  0  0  0  0  0  0  0  0  0  0  0
    2.5236   52.2125  -25.4582 H   0  0  0  0  0  0  0  0  0  0  0  0
    1.0292   51.7086  -27.2503 H   0  0  0  0  0  0  0  0  0  0  0  0
   -1.2934   51.3988  -26.8829 H   0  0  0  0  0  0  0  0  0  0  0  0
   -2.3063   49.6135  -23.2046 H   0  0  0  0  0  0  0  0  0  0  0  0
   -5.2095   49.8811  -23.8743 H   0  0  0  0  0  0  0  0  0  0  0  0
   -4.4375   50.4723  -22.4225 H   0  0  0  0  0  0  0  0  0  0  0  0
   -4.5255   48.7541  -22.7275 H   0  0  0  0  0  0  0  0  0  0  0  0
   -3.8288   48.8426  -25.6705 H   0  0  0  0  0  0  0  0  0  0  0  0
   -3.1516   47.7356  -24.5005 H   0  0  0  0  0  0  0  0  0  0  0  0
   -2.0966   48.7397  -25.4658 H   0  0  0  0  0  0  0  0  0  0  0  0
  1 10  1  6  0  0  0
  1  2  1  0  0  0  0
  2  3  1  0  0  0  0
  4  2  1  0  0  0  0
  4 47  1  0  0  0  0
  5  4  1  0  0  0  0
  6  5  1  0  0  0  0
  7  8  1  0  0  0  0
  7  5  2  0  0  0  0
  8  1  1  0  0  0  0
  9  8  1  0  0  0  0
 10 11  1  0  0  0  0
 12 10  1  0  0  0  0
 12 13  2  0  0  0  0
 13 18  1  0  0  0  0
 14 13  1  0  0  0  0
 14 48  1  0  0  0  0
 15 14  2  0  0  0  0
 16 17  2  0  0  0  0
 16 15  1  0  0  0  0
 16 49  1  0  0  0  0
 17 12  1  0  0  0  0
 17 50  1  0  0  0  0
 18 19  1  0  0  0  0
 19 51  1  0  0  0  0
 19 52  1  0  0  0  0
 19 53  1  0  0  0  0
 20 21  1  0  0  0  0
 20 15  1  0  0  0  0
 21 54  1  0  0  0  0
 21 55  1  0  0  0  0
 22 21  1  0  0  0  0
 22 56  1  0  0  0  0
 22 57  1  0  0  0  0
 23 22  1  0  0  0  0
 23 58  1  6  0  0  0
 24 23  1  0  0  0  0
 24 25  1  0  0  0  0
 24 59  1  0  0  0  0
 24 60  1  0  0  0  0
 25 20  1  0  0  0  0
 25 61  1  0  0  0  0
 25 62  1  0  0  0  0
 26 27  1  0  0  0  0
 26 23  1  0  0  0  0
 27 63  1  0  0  0  0
 27 64  1  0  0  0  0
 28 27  1  0  0  0  0
 28 65  1  0  0  0  0
 28 66  1  0  0  0  0
 29 28  1  0  0  0  0
 30 29  1  0  0  0  0
 30 67  1  0  0  0  0
 30 68  1  0  0  0  0
 30 69  1  0  0  0  0
 31 29  1  0  0  0  0
 31 32  1  0  0  0  0
 31 70  1  0  0  0  0
 31 71  1  0  0  0  0
 32 26  1  0  0  0  0
 32 72  1  0  0  0  0
 32 73  1  0  0  0  0
 33 34  1  0  0  0  0
 33  7  1  0  0  0  0
 35 33  1  0  0  0  0
 36 35  1  0  0  0  0
 36 74  1  0  0  0  0
 37 36  2  0  0  0  0
 37 75  1  0  0  0  0
 38 39  2  0  0  0  0
 38 37  1  0  0  0  0
 38 76  1  0  0  0  0
 39 40  1  0  0  0  0
 39 77  1  0  0  0  0
 40 41  1  0  0  0  0
 40 35  2  0  0  0  0
 41 44  1  0  0  0  0
 41 43  2  0  0  0  0
 42 41  2  0  0  0  0
 44 45  1  0  0  0  0
 44 78  1  0  0  0  0
 45 79  1  0  0  0  0
 45 80  1  0  0  0  0
 45 81  1  0  0  0  0
 46 44  1  0  0  0  0
 46 82  1  0  0  0  0
 46 83  1  0  0  0  0
 46 84  1  0  0  0  0
M  END
>  <REMARK>
 VINA RESULT:      -7.9      5.400      9.274
  9 active torsions:
  status: ('A' for Active; 'I' for Inactive)
    1  A    between atoms: O_2  and  C_3 
    2  A    between atoms: C_4  and  N_5 
    3  A    between atoms: N_5  and  C_7 
    4  A    between atoms: C_13  and  N_14 
    5  A    between atoms: N_14  and  C_16 
    6  A    between atoms: C_21  and  S_22 
    7  A    between atoms: S_22  and  C_25 
    8  A    between atoms: C_32  and  N_33 
    9  A    between atoms: C_36  and  N_37 

>  <TORSDO>
F 9

$$$$
resistance_project/docking/8faf60323ce63d5a/P00533_WT/docked/molecule_0004_out.pdbqt
 OpenBabel09142609533D

 84 88  0  0  1  0  0  0  0  0999 V2000
   -0.2180   49.7270  -17.5320 C   0  0  1  0  0  0  0  0  0  0  0  0
   -1.4030   49.4430  -16.9410 N   0  0  0  0  0  0  0  0  0  0  0  0
   -2.0860   48.8350  -17.3930 H   0  0  0  0  0  0  0  0  0  0  0  0
   -1.6480   49.9840  -15.7380 C   0  0  0  0  0  0  0  0  0  0  0  0
   -0.7290   50.8010  -15.1310 C   0  0  0  0  0  0  0  0  0  0  0  0
   -1.1630   51.4730  -13.5700 Cl  0  0  0  0  0  0  0  0  0  0  0  0
    0.4960   51.0960  -15.7440 C   0  0  0  0  0  0  0  0  0  0  0  0
    0.6840   50.5260  -16.9430 N   0  0  0  0  0  0  0  0  0  0  0  0
    1.5590   50.7090  -17.4340 H   0  0  0  0  0  0  0  0  0  0  0  0
    0.1500   49.1890  -18.8060 N   0  0  0  0  0  0  0  0  0  0  0  0
    0.9100   48.5090  -18.8550 H   0  0  0  0  0  0  0  0  0  0  0  0
   -0.5100   49.5730  -20.0050 C   0  0  0  0  0  0  0  0  0  0  0  0
   -1.3690   48.7070  -20.6360 C   0  0  0  0  0  0  0  0  0  0  0  0
   -2.0180   49.1120  -21.7900 C   0  0  0  0  0  0  0  0  0  0  0  0
   -1.7890   50.3980  -22.2980 C   0  0  0  0  0  0  0  0  0  0  0  0
   -0.9210   51.2780  -21.6650 C   0  0  0  0  0  0  0  0  0  0  0  0
   -0.2690   50.8610  -20.4990 C   0  0  0  0  0  0  0  0  0  0  0  0
   -1.6270   47.4300  -20.1720 O   0  0  0  0  0  0  0  0  0  0  0  0
   -2.8540   47.0500  -19.5860 C   0  0  0  0  0  0  0  0  0  0  0  0
   -2.5060   50.7510  -23.4820 N   0  0  0  0  0  0  0  0  0  0  0  0
   -2.9360   52.1070  -23.7640 C   0  0  0  0  0  0  0  0  0  0  0  0
   -2.7370   52.3410  -25.2390 C   0  0  0  0  0  0  0  0  0  0  0  0
   -1.7880   51.4250  -25.9000 C   0  0  2  0  0  0  0  0  0  0  0  0
   -1.9270   49.9820  -25.6340 C   0  0  0  0  0  0  0  0  0  0  0  0
   -2.7750   49.6490  -24.4290 C   0  0  0  0  0  0  0  0  0  0  0  0
   -0.5510   51.9280  -26.3360 N   0  0  0  0  0  0  0  0  0  0  0  0
    0.6290   51.2810  -25.8750 C   0  0  0  0  0  0  0  0  0  0  0  0
    1.2000   51.8820  -24.6080 C   0  0  0  0  0  0  0  0  0  0  0  0
    0.4410   53.1070  -24.3370 N   0  0  0  0  0  0  0  0  0  0  0  0
    1.0980   53.8190  -23.2810 C   0  0  0  0  0  0  0  0  0  0  0  0
    0.5420   53.9090  -25.5680 C   0  0  0  0  0  0  0  0  0  0  0  0
   -0.4960   53.3360  -26.5110 C   0  0  0  0  0  0  0  0  0  0  0  0
    1.3610   51.9440  -15.0720 N   0  0  0  0  0  0  0  0  0  0  0  0
    0.8980   52.6540  -14.5050 H   0  0  0  0  0  0  0  0  0  0  0  0
    2.7680   51.9960  -15.0360 C   0  0  0  0  0  0  0  0  0  0  0  0
    3.3300   52.6480  -16.1580 C   0  0  0  0  0  0  0  0  0  0  0  0
    4.6700   52.7680  -16.2410 C   0  0  0  0  0  0  0  0  0  0  0  0
    5.4540   52.2590  -15.2430 C   0  0  0  0  0  0  0  0  0  0  0  0
    4.9280   51.6320  -14.1600 C   0  0  0  0  0  0  0  0  0  0  0  0
    3.5550   51.4890  -14.0340 C   0  0  0  0  0  0  0  0  0  0  0  0
    2.9730   50.7760  -12.5650 S   0  0  0  0  0  0  0  0  0  0  0  0
    4.1330   50.0430  -11.8910 O   0  0  0  0  0  0  0  0  0  0  0  0
    1.8750   49.8270  -12.8380 O   0  0  0  0  0  0  0  0  0  0  0  0
    2.4060   52.0370  -11.4650 C   0  0  0  0  0  0  0  0  0  0  0  0
    1.1600   51.5810  -10.7700 C   0  0  0  0  0  0  0  0  0  0  0  0
    3.4770   52.3770  -10.4450 C   0  0  0  0  0  0  0  0  0  0  0  0
   -1.8203   49.1685  -15.0670 H   0  0  0  0  0  0  0  0  0  0  0  0
   -2.6664   48.4708  -22.2732 H   0  0  0  0  0  0  0  0  0  0  0  0
   -0.7596   52.2228  -22.0477 H   0  0  0  0  0  0  0  0  0  0  0  0
    0.3815   51.4950  -20.0092 H   0  0  0  0  0  0  0  0  0  0  0  0
   -2.8121   46.0175  -19.3084 H   0  0  0  0  0  0  0  0  0  0  0  0
   -3.6464   47.1983  -20.2896 H   0  0  0  0  0  0  0  0  0  0  0  0
   -3.0335   47.6463  -18.7159 H   0  0  0  0  0  0  0  0  0  0  0  0
   -3.9689   52.2240  -23.5105 H   0  0  0  0  0  0  0  0  0  0  0  0
   -2.3721   52.8112  -23.1887 H   0  0  0  0  0  0  0  0  0  0  0  0
   -3.6866   52.2377  -25.7212 H   0  0  0  0  0  0  0  0  0  0  0  0
   -2.3149   53.3201  -25.3291 H   0  0  0  0  0  0  0  0  0  0  0  0
   -2.2268   51.4253  -26.8759 H   0  0  0  0  0  0  0  0  0  0  0  0
   -0.9499   49.5746  -25.4786 H   0  0  0  0  0  0  0  0  0  0  0  0
   -2.4239   49.5612  -26.4831 H   0  0  0  0  0  0  0  0  0  0  0  0
   -2.4853   48.7084  -24.0091 H   0  0  0  0  0  0  0  0  0  0  0  0
   -3.8136   49.5598  -24.6703 H   0  0  0  0  0  0  0  0  0  0  0  0
    1.3711   51.3453  -26.6431 H   0  0  0  0  0  0  0  0  0  0  0  0
    0.3617   50.2702  -25.6476 H   0  0  0  0  0  0  0  0  0  0  0  0
    2.2356   52.1137  -24.7451 H   0  0  0  0  0  0  0  0  0  0  0  0
    1.1234   51.1957  -23.7907 H   0  0  0  0  0  0  0  0  0  0  0  0
    0.5586   54.7181  -23.0676 H   0  0  0  0  0  0  0  0  0  0  0  0
    2.0949   54.0642  -23.5825 H   0  0  0  0  0  0  0  0  0  0  0  0
    1.1310   53.2063  -22.4044 H   0  0  0  0  0  0  0  0  0  0  0  0
    0.3327   54.9379  -25.3621 H   0  0  0  0  0  0  0  0  0  0  0  0
    1.5252   53.8688  -25.9883 H   0  0  0  0  0  0  0  0  0  0  0  0
   -1.4529   53.7624  -26.2934 H   0  0  0  0  0  0  0  0  0  0  0  0
   -0.2319   53.5650  -27.5223 H   0  0  0  0  0  0  0  0  0  0  0  0
    2.7232   53.0263  -16.9022 H   0  0  0  0  0  0  0  0  0  0  0  0
    5.1008   53.2402  -17.0512 H   0  0  0  0  0  0  0  0  0  0  0  0
    6.4790   52.3546  -15.3155 H   0  0  0  0  0  0  0  0  0  0  0  0
    5.5528   51.2603  -13.4275 H   0  0  0  0  0  0  0  0  0  0  0  0
    2.1902   52.9170  -12.0341 H   0  0  0  0  0  0  0  0  0  0  0  0
    1.3716   50.7008  -10.1995 H   0  0  0  0  0  0  0  0  0  0  0  0
    0.4059   51.3622  -11.4969 H   0  0  0  0  0  0  0  0  0  0  0  0
    0.8124   52.3542  -10.1171 H   0  0  0  0  0  0  0  0  0  0  0  0
    3.7064   51.5074   -9.8653 H   0  0  0  0  0  0  0  0  0  0  0  0
    3.1212   53.1524   -9.7992 H   0  0  0  0  0  0  0  0  0  0  0  0
    4.3585   52.7109  -10.9513 H   0  0  0  0  0  0  0  0  0  0  0  0
  1 10  1  1  0  0  0
  1  8  1  0  0  0  0
  1  2  1  0  0  0  0
  2  4  1  0  0  0  0
  3  2  1  0  0  0  0
  4  5  1  0  0  0  0
  4 47  1  0  0  0  0
  5  6  1  0  0  0  0
  7  5  2  0  0  0  0
  7 33  1  0  0  0  0
  8  7  1  0  0  0  0
  9  8  1  0  0  0  0
 11 10  1  0  0  0  0
 12 10  1  0  0  0  0
 13 18  1  0  0  0  0
 13 12  2  0  0  0  0
 14 13  1  0  0  0  0
 14 48  1  0  0  0  0
 15 14  2  0  0  0  0
 15 16  1  0  0  0  0
 16 17  2  0  0  0  0
 16 49  1  0  0  0  0
 17 12  1  0  0  0  0
 17 50  1  0  0  0  0
 18 19  1  0  0  0  0
 19 51  1  0  0  0  0
 19 52  1  0  0  0  0
 19 53  1  0  0  0  0
 20 15  1  0  0  0  0
 21 20  1  0  0  0  0
 21 54  1  0  0  0  0
 21 55  1  0  0  0  0
 22 21  1  0  0  0  0
 22 56  1  0  0  0  0
 22 57  1  0  0  0  0
 23 24  1  0  0  0  0
 23 22  1  0  0  0  0
 23 58  1  6  0  0  0
 24 25  1  0  0  0  0
 24 59  1  0  0  0  0
 24 60  1  0  0  0  0
 25 20  1  0  0  0  0
 25 61  1  0  0  0  0
 25 62  1  0  0  0  0
 26 23  1  0  0  0  0
 26 27  1  0  0  0  0
 27 28  1  0  0  0  0
 27 63  1  0  0  0  0
 27 64  1  0  0  0  0
 28 29  1  0  0  0  0
 28 65  1  0  0  0  0
 28 66  1  0  0  0  0
 29 30  1  0  0  0  0
 30 67  1  0  0  0  0
 30 68  1  0  0  0  0
 30 69  1  0  0  0  0
 31 29  1  0  0  0  0
 31 70  1  0  0  0  0
 31 71  1  0  0  0  0
 32 26  1  0  0  0  0
 32 31  1  0  0  0  0
 32 72  1  0  0  0  0
 32 73  1  0  0  0  0
 33 35  1  0  0  0  0
 33 34  1  0  0  0  0
 35 40  2  0  0  0  0
 36 35  1  0  0  0  0
 36 74  1  0  0  0  0
 37 36  2  0  0  0  0
 37 38  1  0  0  0  0
 37 75  1  0  0  0  0
 38 39  2  0  0  0  0
 38 76  1  0  0  0  0
 39 40  1  0  0  0  0
 39 77  1  0  0  0  0
 40 41  1  0  0  0  0
 41 42  2  0  0  0  0
 41 44  1  0  0  0  0
 43 41  2  0  0  0  0
 44 45  1  0  0  0  0
 44 46  1  0  0  0  0
 44 78  1  0  0  0  0
 45 79  1  0  0  0  0
 45 80  1  0  0  0  0
 45 81  1  0  0  0  0
 46 82  1  0  0  0  0
 46 83  1  0  0  0  0
 46 84  1  0  0  0  0
M  END
>  <REMARK>
 VINA RESULT:      -7.9      3.414      6.178
  9 active torsions:
  status: ('A' for Active; 'I' for Inactive)
    1  A    between atoms: O_2  and  C_3 
    2  A    between atoms: C_4  and  N_5 
    3  A    between atoms: N_5  and  C_7 
    4  A    between atoms: C_13  and  N_14 
    5  A    between atoms: N_14  and  C_16 
    6  A    between atoms: C_21  and  S_22 
    7  A    between atoms: S_22  and  C_25 
    8  A    between atoms: C_32  and  N_33 
    9  A    between atoms: C_36  and  N_37 

>  <TORSDO>
F 9

$$$$
resistance_project/docking/8faf60323ce63d5a/P00533_WT/docked/molecule_0004_out.pdbqt
 OpenBabel09142609533D

 84 88  0  0  1  0  0  0  0  0999 V2000
    0.4740   51.0090  -18.1300 C   0  0  1  0  0  0  0  0  0  0  0  0
    1.1320   52.1880  -18.0190 N   0  0  0  0  0  0  0  0  0  0  0  0
    1.4670   52.5220  -17.1150 H   0  0  0  0  0  0  0  0  0  0  0  0
    1.3310   52.9010  -19.1370 C   0  0  0  0  0  0  0  0  0  0  0  0
    0.8800   52.4500  -20.3520 C   0  0  0  0  0  0  0  0  0  0  0  0
    1.1750   53.4740  -21.7450 Cl  0  0  0  0  0  0  0  0  0  0  0  0
    0.1990   51.2310  -20.4650 C   0  0  1  0  0  0  0  0  0  0  0  0
    0.0310   50.5630  -19.3140 N   0  0  0  0  0  0  0  0  0  0  0  0
   -0.4600   49.6700  -19.3400 H   0  0  0  0  0  0  0  0  0  0  0  0
    0.2240   50.1630  -17.0030 N   0  0  0  0  0  0  0  0  0  0  0  0
    0.5450   49.1950  -17.0300 H   0  0  0  0  0  0  0  0  0  0  0  0
   -0.4590   50.6320  -15.8470 C   0  0  0  0  0  0  0  0  0  0  0  0
    0.2310   51.2370  -14.8270 C   0  0  0  0  0  0  0  0  0  0  0  0
   -0.4590   51.7050  -13.7220 C   0  0  0  0  0  0  0  0  0  0  0  0
   -1.8500   51.5540  -13.6600 C   0  0  0  0  0  0  0  0  0  0  0  0
   -2.5550   50.9410  -14.6880 C   0  0  0  0  0  0  0  0  0  0  0  0
   -1.8500   50.4710  -15.8020 C   0  0  0  0  0  0  0  0  0  0  0  0
    1.6040   51.4100  -14.8440 O   0  0  0  0  0  0  0  0  0  0  0  0
    2.3940   51.4710  -13.6760 C   0  0  0  0  0  0  0  0  0  0  0  0
   -2.4950   52.0750  -12.4960 N   0  0  0  0  0  0  0  0  0  0  0  0
   -3.9300   52.2690  -12.4160 C   0  0  0  0  0  0  0  0  0  0  0  0
   -4.3570   51.8760  -11.0250 C   0  0  0  0  0  0  0  0  0  0  0  0
   -3.4140   51.0030  -10.3000 C   0  0  2  0  0  0  0  0  0  0  0  0
   -1.9890   51.3790  -10.3020 C   0  0  0  0  0  0  0  0  0  0  0  0
   -1.6130   52.3960  -11.3550 C   0  0  0  0  0  0  0  0  0  0  0  0
   -3.7710   49.6660  -10.0650 N   0  0  0  0  0  0  0  0  0  0  0  0
   -2.7420   48.6850  -10.1050 C   0  0  0  0  0  0  0  0  0  0  0  0
   -2.5540   48.0540  -11.4690 C   0  0  0  0  0  0  0  0  0  0  0  0
   -3.6540   48.5280  -12.3150 N   0  0  0  0  0  0  0  0  0  0  0  0
   -3.6380   47.7780  -13.5350 C   0  0  0  0  0  0  0  0  0  0  0  0
   -4.8840   48.1910  -11.5800 C   0  0  0  0  0  0  0  0  0  0  0  0
   -5.0520   49.2860  -10.5470 C   0  0  0  0  0  0  0  0  0  0  0  0
   -0.2390   50.8570  -21.7250 N   0  0  0  0  0  0  0  0  0  0  0  0
    0.4140   50.2670  -22.2400 H   0  0  0  0  0  0  0  0  0  0  0  0
   -1.4280   51.1520  -22.4190 C   0  0  0  0  0  0  0  0  0  0  0  0
   -1.2250   51.9800  -23.5470 C   0  0  0  0  0  0  0  0  0  0  0  0
   -2.2870   52.3320  -24.3000 C   0  0  0  0  0  0  0  0  0  0  0  0
   -3.5320   51.8820  -23.9580 C   0  0  0  0  0  0  0  0  0  0  0  0
   -3.7410   51.0850  -22.8790 C   0  0  0  0  0  0  0  0  0  0  0  0
   -2.6780   50.6980  -22.0800 C   0  0  0  0  0  0  0  0  0  0  0  0
   -3.0270   49.5910  -20.7930 S   0  0  0  0  0  0  0  0  0  0  0  0
   -3.1070   50.3790  -19.4860 O   0  0  0  0  0  0  0  0  0  0  0  0
   -1.9790   48.5560  -20.6880 O   0  0  0  0  0  0  0  0  0  0  0  0
   -4.5930   48.8210  -21.0680 C   0  0  0  0  0  0  0  0  0  0  0  0
   -4.4820   47.3460  -20.8290 C   0  0  0  0  0  0  0  0  0  0  0  0
   -5.6490   49.4180  -20.1550 C   0  0  0  0  0  0  0  0  0  0  0  0
    1.8307   53.8023  -19.0829 H   0  0  0  0  0  0  0  0  0  0  0  0
    0.0485   52.1624  -12.9485 H   0  0  0  0  0  0  0  0  0  0  0  0
   -3.5799   50.8341  -14.6314 H   0  0  0  0  0  0  0  0  0  0  0  0
   -2.3484   50.0117  -16.5803 H   0  0  0  0  0  0  0  0  0  0  0  0
    3.4201   51.6087  -13.9462 H   0  0  0  0  0  0  0  0  0  0  0  0
    2.2892   50.5589  -13.1265 H   0  0  0  0  0  0  0  0  0  0  0  0
    2.0716   52.2916  -13.0698 H   0  0  0  0  0  0  0  0  0  0  0  0
   -4.4238   51.6534  -13.1386 H   0  0  0  0  0  0  0  0  0  0  0  0
   -4.1870   53.2878  -12.6182 H   0  0  0  0  0  0  0  0  0  0  0  0
   -5.2929   51.3626  -11.0990 H   0  0  0  0  0  0  0  0  0  0  0  0
   -4.4106   52.7853  -10.4635 H   0  0  0  0  0  0  0  0  0  0  0  0
   -3.6386   51.3263   -9.3051 H   0  0  0  0  0  0  0  0  0  0  0  0
   -1.7491   51.7867   -9.3422 H   0  0  0  0  0  0  0  0  0  0  0  0
   -1.4388   50.4892  -10.5266 H   0  0  0  0  0  0  0  0  0  0  0  0
   -1.7927   53.3907  -11.0039 H   0  0  0  0  0  0  0  0  0  0  0  0
   -0.5755   52.3556  -11.6135 H   0  0  0  0  0  0  0  0  0  0  0  0
   -1.8216   49.1491   -9.8179 H   0  0  0  0  0  0  0  0  0  0  0  0
   -3.0309   47.9018   -9.4357 H   0  0  0  0  0  0  0  0  0  0  0  0
   -1.6148   48.3524  -11.8858 H   0  0  0  0  0  0  0  0  0  0  0  0
   -2.5577   46.9862  -11.4000 H   0  0  0  0  0  0  0  0  0  0  0  0
   -4.4347   48.1092  -14.1678 H   0  0  0  0  0  0  0  0  0  0  0  0
   -3.7650   46.7383  -13.3162 H   0  0  0  0  0  0  0  0  0  0  0  0
   -2.7023   47.9261  -14.0325 H   0  0  0  0  0  0  0  0  0  0  0  0
   -4.7850   47.2386  -11.1025 H   0  0  0  0  0  0  0  0  0  0  0  0
   -5.7304   48.1270  -12.2314 H   0  0  0  0  0  0  0  0  0  0  0  0
   -5.6484   48.9252   -9.7352 H   0  0  0  0  0  0  0  0  0  0  0  0
   -5.5371   50.1305  -10.9902 H   0  0  0  0  0  0  0  0  0  0  0  0
   -0.2780   52.3101  -23.7905 H   0  0  0  0  0  0  0  0  0  0  0  0
   -2.1610   52.9359  -25.1273 H   0  0  0  0  0  0  0  0  0  0  0  0
   -4.3392   52.1572  -24.5391 H   0  0  0  0  0  0  0  0  0  0  0  0
   -4.6962   50.7661  -22.6532 H   0  0  0  0  0  0  0  0  0  0  0  0
   -4.8863   48.9929  -22.0825 H   0  0  0  0  0  0  0  0  0  0  0  0
   -4.1887   47.1700  -19.8151 H   0  0  0  0  0  0  0  0  0  0  0  0
   -3.7490   46.9319  -21.4893 H   0  0  0  0  0  0  0  0  0  0  0  0
   -5.4290   46.8828  -21.0119 H   0  0  0  0  0  0  0  0  0  0  0  0
   -5.3716   49.2551  -19.1345 H   0  0  0  0  0  0  0  0  0  0  0  0
   -6.5922   48.9507  -20.3472 H   0  0  0  0  0  0  0  0  0  0  0  0
   -5.7275   50.4690  -20.3399 H   0  0  0  0  0  0  0  0  0  0  0  0
  1  2  1  0  0  0  0
  1 10  1  6  0  0  0
  2  3  1  0  0  0  0
  4  2  1  0  0  0  0
  4 47  1  0  0  0  0
  5  4  2  0  0  0  0
  6  5  1  0  0  0  0
  7 33  1  1  0  0  0
  7  5  1  0  0  0  0
  7  8  1  0  0  0  0
  8  1  1  0  0  0  0
  9  8  1  0  0  0  0
 10 12  1  0  0  0  0
 11 10  1  0  0  0  0
 12 17  2  0  0  0  0
 12 13  1  0  0  0  0
 13 14  2  0  0  0  0
 14 15  1  0  0  0  0
 14 48  1  0  0  0  0
 15 20  1  0  0  0  0
 16 15  2  0  0  0  0
 16 49  1  0  0  0  0
 17 16  1  0  0  0  0
 17 50  1  0  0  0  0
 18 13  1  0  0  0  0
 18 19  1  0  0  0  0
 19 51  1  0  0  0  0
 19 52  1  0  0  0  0
 19 53  1  0  0  0  0
 20 21  1  0  0  0  0
 20 25  1  0  0  0  0
 21 22  1  0  0  0  0
 21 54  1  0  0  0  0
 21 55  1  0  0  0  0
 22 23  1  0  0  0  0
 22 56  1  0  0  0  0
 22 57  1  0  0  0  0
 23 26  1  0  0  0  0
 23 58  1  1  0  0  0
 24 23  1  0  0  0  0
 24 59  1  0  0  0  0
 24 60  1  0  0  0  0
 25 24  1  0  0  0  0
 25 61  1  0  0  0  0
 25 62  1  0  0  0  0
 27 26  1  0  0  0  0
 27 63  1  0  0  0  0
 27 64  1  0  0  0  0
 28 27  1  0  0  0  0
 28 65  1  0  0  0  0
 28 66  1  0  0  0  0
 29 31  1  0  0  0  0
 29 28  1  0  0  0  0
 30 29  1  0  0  0  0
 30 67  1  0  0  0  0
 30 68  1  0  0  0  0
 30 69  1  0  0  0  0
 31 32  1  0  0  0  0
 31 70  1  0  0  0  0
 31 71  1  0  0  0  0
 32 26  1  0  0  0  0
 32 72  1  0  0  0  0
 32 73  1  0  0  0  0
 34 33  1  0  0  0  0
 35 40  1  0  0  0  0
 35 33  1  0  0  0  0
 36 35  2  0  0  0  0
 36 74  1  0  0  0  0
 37 38  2  0  0  0  0
 37 36  1  0  0  0  0
 37 75  1  0  0  0  0
 38 39  1  0  0  0  0
 38 76  1  0  0  0  0
 39 40  2  0  0  0  0
 39 77  1  0  0  0  0
 40 41  1  0  0  0  0
 41 43  2  0  0  0  0
 41 42  2  0  0  0  0
 44 45  1  0  0  0  0
 44 41  1  0  0  0  0
 44 46  1  0  0  0  0
 44 78  1  0  0  0  0
 45 79  1  0  0  0  0
 45 80  1  0  0  0  0
 45 81  1  0  0  0  0
 46 82  1  0  0  0  0
 46 83  1  0  0  0  0
 46 84  1  0  0  0  0
M  END
>  <REMARK>
 VINA RESULT:      -7.9      3.274      8.744
  9 active torsions:
  status: ('A' for Active; 'I' for Inactive)
    1  A    between atoms: O_2  and  C_3 
    2  A    between atoms: C_4  and  N_5 
    3  A    between atoms: N_5  and  C_7 
    4  A    between atoms: C_13  and  N_14 
    5  A    between atoms: N_14  and  C_16 
    6  A    between atoms: C_21  and  S_22 
    7  A    between atoms: S_22  and  C_25 
    8  A    between atoms: C_32  and  N_33 
    9  A    between atoms: C_36  and  N_37 

>  <TORSDO>
F 9

$$$$
resistance_project/docking/8faf60323ce63d5a/P00533_WT/docked/molecule_0004_out.pdbqt
 OpenBabel09142609533D

 84 88  0  0  1  0  0  0  0  0999 V2000
    0.1020   50.7200  -19.3750 C   0  0  1  0  0  0  0  0  0  0  0  0
    0.7980   51.6570  -18.6880 N   0  0  0  0  0  0  0  0  0  0  0  0
    0.9350   51.5790  -17.6810 H   0  0  0  0  0  0  0  0  0  0  0  0
    1.3040   52.6910  -19.3780 C   0  0  0  0  0  0  0  0  0  0  0  0
    1.1190   52.7940  -20.7330 C   0  0  0  0  0  0  0  0  0  0  0  0
    1.8040   54.1970  -21.5310 Cl  0  0  0  0  0  0  0  0  0  0  0  0
    0.3980   51.8230  -21.4420 C   0  0  0  0  0  0  0  0  0  0  0  0
   -0.0820   50.8150  -20.7000 N   0  0  0  0  0  0  0  0  0  0  0  0
   -0.6170   50.0820  -21.1660 H   0  0  0  0  0  0  0  0  0  0  0  0
   -0.4650   49.5690  -18.7390 N   0  0  0  0  0  0  0  0  0  0  0  0
   -0.3050   49.4260  -17.7410 H   0  0  0  0  0  0  0  0  0  0  0  0
   -1.2450   48.6210  -19.4560 C   0  0  0  0  0  0  0  0  0  0  0  0
   -2.5430   48.3650  -19.0880 C   0  0  0  0  0  0  0  0  0  0  0  0
   -3.2890   47.4540  -19.8160 C   0  0  0  0  0  0  0  0  0  0  0  0
   -2.7100   46.8070  -20.9160 C   0  0  0  0  0  0  0  0  0  0  0  0
   -1.3980   47.0620  -21.2930 C   0  0  0  0  0  0  0  0  0  0  0  0
   -0.6500   47.9840  -20.5520 C   0  0  0  0  0  0  0  0  0  0  0  0
   -3.1560   48.9790  -18.0110 O   0  0  0  0  0  0  0  0  0  0  0  0
   -3.0660   48.4970  -16.6880 C   0  0  0  0  0  0  0  0  0  0  0  0
   -3.5460   45.8930  -21.6280 N   0  0  0  0  0  0  0  0  0  0  0  0
   -4.7740   45.3570  -21.0720 C   0  0  0  0  0  0  0  0  0  0  0  0
   -5.7840   45.3040  -22.1890 C   0  0  0  0  0  0  0  0  0  0  0  0
   -5.4950   46.1780  -23.3430 C   0  0  2  0  0  0  0  0  0  0  0  0
   -4.1290   46.1540  -23.8970 C   0  0  0  0  0  0  0  0  0  0  0  0
   -3.0970   45.5280  -22.9880 C   0  0  0  0  0  0  0  0  0  0  0  0
   -6.3070   47.3020  -23.5620 N   0  0  0  0  0  0  0  0  0  0  0  0
   -5.6750   48.5750  -23.6400 C   0  0  0  0  0  0  0  0  0  0  0  0
   -5.5940   49.2970  -22.3110 C   0  0  0  0  0  0  0  0  0  0  0  0
   -6.3870   48.5200  -21.3530 N   0  0  0  0  0  0  0  0  0  0  0  0
   -6.5210   49.2900  -20.1520 C   0  0  0  0  0  0  0  0  0  0  0  0
   -7.7180   48.3860  -21.9670 C   0  0  0  0  0  0  0  0  0  0  0  0
   -7.5920   47.2490  -22.9610 C   0  0  0  0  0  0  0  0  0  0  0  0
    0.2410   52.0110  -22.8060 N   0  0  0  0  0  0  0  0  0  0  0  0
    1.1130   52.1670  -23.3120 H   0  0  0  0  0  0  0  0  0  0  0  0
   -0.9120   52.0270  -23.6140 C   0  0  0  0  0  0  0  0  0  0  0  0
   -2.0720   51.5830  -22.9390 C   0  0  0  0  0  0  0  0  0  0  0  0
   -3.2450   51.5540  -23.6030 C   0  0  0  0  0  0  0  0  0  0  0  0
   -3.2880   51.9530  -24.9100 C   0  0  0  0  0  0  0  0  0  0  0  0
   -2.1820   52.3840  -25.5700 C   0  0  0  0  0  0  0  0  0  0  0  0
   -0.9570   52.4310  -24.9240 C   0  0  0  0  0  0  0  0  0  0  0  0
    0.3720   53.0990  -25.8130 S   0  0  0  0  0  0  0  0  0  0  0  0
    1.2590   53.8790  -24.8430 O   0  0  0  0  0  0  0  0  0  0  0  0
   -0.1060   53.9960  -26.8840 O   0  0  0  0  0  0  0  0  0  0  0  0
    1.3400   51.8000  -26.5180 C   0  0  0  0  0  0  0  0  0  0  0  0
    2.0050   52.2840  -27.7690 C   0  0  0  0  0  0  0  0  0  0  0  0
    2.3840   51.3130  -25.5290 C   0  0  0  0  0  0  0  0  0  0  0  0
    0.8887   53.5774  -18.9460 H   0  0  0  0  0  0  0  0  0  0  0  0
   -4.2656   47.2525  -19.5502 H   0  0  0  0  0  0  0  0  0  0  0  0
   -0.9819   46.5801  -22.1052 H   0  0  0  0  0  0  0  0  0  0  0  0
    0.3274   48.1917  -20.8100 H   0  0  0  0  0  0  0  0  0  0  0  0
   -3.6212   49.1386  -16.0361 H   0  0  0  0  0  0  0  0  0  0  0  0
   -2.0404   48.4802  -16.3835 H   0  0  0  0  0  0  0  0  0  0  0  0
   -3.4682   47.5066  -16.6411 H   0  0  0  0  0  0  0  0  0  0  0  0
   -4.6029   44.3739  -20.6857 H   0  0  0  0  0  0  0  0  0  0  0  0
   -5.1271   45.9709  -20.2699 H   0  0  0  0  0  0  0  0  0  0  0  0
   -5.8333   44.2953  -22.5425 H   0  0  0  0  0  0  0  0  0  0  0  0
   -6.7040   45.6580  -21.7729 H   0  0  0  0  0  0  0  0  0  0  0  0
   -5.9604   45.5905  -24.1066 H   0  0  0  0  0  0  0  0  0  0  0  0
   -3.8313   47.1621  -24.0968 H   0  0  0  0  0  0  0  0  0  0  0  0
   -4.1676   45.5477  -24.7778 H   0  0  0  0  0  0  0  0  0  0  0  0
   -2.1241   45.9266  -23.1866 H   0  0  0  0  0  0  0  0  0  0  0  0
   -3.0177   44.4697  -23.1241 H   0  0  0  0  0  0  0  0  0  0  0  0
   -6.2281   49.1854  -24.3229 H   0  0  0  0  0  0  0  0  0  0  0  0
   -4.6699   48.4057  -23.9657 H   0  0  0  0  0  0  0  0  0  0  0  0
   -5.9947   50.2848  -22.4042 H   0  0  0  0  0  0  0  0  0  0  0  0
   -4.5787   49.3844  -21.9848 H   0  0  0  0  0  0  0  0  0  0  0  0
   -5.5623   49.3991  -19.6895 H   0  0  0  0  0  0  0  0  0  0  0  0
   -7.1864   48.7896  -19.4799 H   0  0  0  0  0  0  0  0  0  0  0  0
   -6.9143   50.2563  -20.3898 H   0  0  0  0  0  0  0  0  0  0  0  0
   -8.4513   48.1532  -21.2234 H   0  0  0  0  0  0  0  0  0  0  0  0
   -8.0308   49.2937  -22.4393 H   0  0  0  0  0  0  0  0  0  0  0  0
   -7.7130   46.3143  -22.4544 H   0  0  0  0  0  0  0  0  0  0  0  0
   -8.3474   47.3406  -23.7132 H   0  0  0  0  0  0  0  0  0  0  0  0
   -2.0217   51.2853  -21.9521 H   0  0  0  0  0  0  0  0  0  0  0  0
   -4.1035   51.2332  -23.1286 H   0  0  0  0  0  0  0  0  0  0  0  0
   -4.1898   51.9258  -25.4111 H   0  0  0  0  0  0  0  0  0  0  0  0
   -2.2542   52.6777  -26.5567 H   0  0  0  0  0  0  0  0  0  0  0  0
    0.6926   50.9820  -26.7562 H   0  0  0  0  0  0  0  0  0  0  0  0
    2.6534   53.1023  -27.5346 H   0  0  0  0  0  0  0  0  0  0  0  0
    1.2607   52.6072  -28.4665 H   0  0  0  0  0  0  0  0  0  0  0  0
    2.5762   51.4885  -28.2000 H   0  0  0  0  0  0  0  0  0  0  0  0
    3.0416   52.1191  -25.2787 H   0  0  0  0  0  0  0  0  0  0  0  0
    2.9473   50.5164  -25.9683 H   0  0  0  0  0  0  0  0  0  0  0  0
    1.8988   50.9603  -24.6430 H   0  0  0  0  0  0  0  0  0  0  0  0
  1 10  1  6  0  0  0
  1  2  1  0  0  0  0
  2  3  1  0  0  0  0
  4  2  1  0  0  0  0
  4 47  1  0  0  0  0
  5  4  1  0  0  0  0
  6  5  1  0  0  0  0
  7  5  2  0  0  0  0
  7  8  1  0  0  0  0
  8  1  1  0  0  0  0
  9  8  1  0  0  0  0
 10 11  1  0  0  0  0
 12 13  1  0  0  0  0
 12 10  1  0  0  0  0
 13 18  1  0  0  0  0
 14 13  2  0  0  0  0
 14 48  1  0  0  0  0
 15 14  1  0  0  0  0
 16 15  2  0  0  0  0
 16 17  1  0  0  0  0
 16 49  1  0  0  0  0
 17 12  2  0  0  0  0
 17 50  1  0  0  0  0
 18 19  1  0  0  0  0
 19 51  1  0  0  0  0
 19 52  1  0  0  0  0
 19 53  1  0  0  0  0
 20 21  1  0  0  0  0
 20 15  1  0  0  0  0
 21 54  1  0  0  0  0
 21 55  1  0  0  0  0
 22 21  1  0  0  0  0
 22 56  1  0  0  0  0
 22 57  1  0  0  0  0
 23 22  1  0  0  0  0
 23 58  1  6  0  0  0
 24 23  1  0  0  0  0
 24 25  1  0  0  0  0
 24 59  1  0  0  0  0
 24 60  1  0  0  0  0
 25 20  1  0  0  0  0
 25 61  1  0  0  0  0
 25 62  1  0  0  0  0
 26 23  1  0  0  0  0
 26 32  1  0  0  0  0
 27 26  1  0  0  0  0
 27 28  1  0  0  0  0
 27 63  1  0  0  0  0
 27 64  1  0  0  0  0
 28 29  1  0  0  0  0
 28 65  1  0  0  0  0
 28 66  1  0  0  0  0
 29 30  1  0  0  0  0
 30 67  1  0  0  0  0
 30 68  1  0  0  0  0
 30 69  1  0  0  0  0
 31 29  1  0  0  0  0
 31 70  1  0  0  0  0
 31 71  1  0  0  0  0
 32 31  1  0  0  0  0
 32 72  1  0  0  0  0
 32 73  1  0  0  0  0
 33  7  1  0  0  0  0
 34 33  1  0  0  0  0
 35 36  2  0  0  0  0
 35 33  1  0  0  0  0
 36 74  1  0  0  0  0
 37 36  1  0  0  0  0
 37 75  1  0  0  0  0
 38 37  2  0  0  0  0
 38 76  1  0  0  0  0
 39 40  2  0  0  0  0
 39 38  1  0  0  0  0
 39 77  1  0  0  0  0
 40 35  1  0  0  0  0
 41 40  1  0  0  0  0
 41 42  2  0  0  0  0
 43 41  2  0  0  0  0
 44 41  1  0  0  0  0
 44 46  1  0  0  0  0
 44 78  1  0  0  0  0
 45 44  1  0  0  0  0
 45 79  1  0  0  0  0
 45 80  1  0  0  0  0
 45 81  1  0  0  0  0
 46 82  1  0  0  0  0
 46 83  1  0  0  0  0
 46 84  1  0  0  0  0
M  END
>  <REMARK>
 VINA RESULT:      -7.8      5.219      9.021
  9 active torsions:
  status: ('A' for Active; 'I' for Inactive)
    1  A    between atoms: O_2  and  C_3 
    2  A    between atoms: C_4  and  N_5 
    3  A    between atoms: N_5  and  C_7 
    4  A    between atoms: C_13  and  N_14 
    5  A    between atoms: N_14  and  C_16 
    6  A    between atoms: C_21  and  S_22 
    7  A    between atoms: S_22  and  C_25 
    8  A    between atoms: C_32  and  N_33 
    9  A    between atoms: C_36  and  N_37 

>  <TORSDO>
F 9

$$$$
resistance_project/docking/8faf60323ce63d5a/P00533_WT/docked/molecule_0004_out.pdbqt
 OpenBabel09142609533D

 84 88  0  0  1  0  0  0  0  0999 V2000
   -0.7500   48.6480  -17.8930 C   0  0  1  0  0  0  0  0  0  0  0  0
   -1.7890   48.0360  -17.2770 N   0  0  0  0  0  0  0  0  0  0  0  0
   -2.3120   47.2930  -17.7390 H   0  0  0  0  0  0  0  0  0  0  0  0
   -2.1050   48.4390  -16.0370 C   0  0  0  0  0  0  0  0  0  0  0  0
   -1.4000   49.4380  -15.4170 C   0  0  0  0  0  0  0  0  0  0  0  0
   -1.9140   49.9000  -13.8050 Cl  0  0  0  0  0  0  0  0  0  0  0  0
   -0.3250   50.0710  -16.0560 C   0  0  0  0  0  0  0  0  0  0  0  0
   -0.0560   49.6260  -17.2920 N   0  0  0  0  0  0  0  0  0  0  0  0
    0.7160   50.0540  -17.8030 H   0  0  0  0  0  0  0  0  0  0  0  0
   -0.3180   48.2850  -19.2090 N   0  0  0  0  0  0  0  0  0  0  0  0
    0.4590   47.6320  -19.3120 H   0  0  0  0  0  0  0  0  0  0  0  0
   -0.9410   48.8050  -20.3760 C   0  0  0  0  0  0  0  0  0  0  0  0
   -0.5670   50.0260  -20.8810 C   0  0  0  0  0  0  0  0  0  0  0  0
   -1.1720   50.5010  -22.0310 C   0  0  0  0  0  0  0  0  0  0  0  0
   -2.1580   49.7320  -22.6630 C   0  0  0  0  0  0  0  0  0  0  0  0
   -2.5420   48.4970  -22.1570 C   0  0  0  0  0  0  0  0  0  0  0  0
   -1.9260   48.0230  -20.9930 C   0  0  0  0  0  0  0  0  0  0  0  0
    0.4020   50.8200  -20.2930 O   0  0  0  0  0  0  0  0  0  0  0  0
    0.1260   52.0690  -19.6980 C   0  0  0  0  0  0  0  0  0  0  0  0
   -2.7270   50.2800  -23.8540 N   0  0  0  0  0  0  0  0  0  0  0  0
   -3.6040   51.4350  -23.8440 C   0  0  0  0  0  0  0  0  0  0  0  0
   -3.2490   52.2750  -25.0440 C   0  0  0  0  0  0  0  0  0  0  0  0
   -1.9100   52.0290  -25.6120 C   0  0  2  0  0  0  0  0  0  0  0  0
   -1.5070   50.6300  -25.8400 C   0  0  0  0  0  0  0  0  0  0  0  0
   -2.3560   49.6100  -25.1170 C   0  0  0  0  0  0  0  0  0  0  0  0
   -0.9200   53.0140  -25.4690 N   0  0  0  0  0  0  0  0  0  0  0  0
   -0.2090   53.4180  -26.6330 C   0  0  0  0  0  0  0  0  0  0  0  0
    1.0650   52.6360  -26.8720 C   0  0  0  0  0  0  0  0  0  0  0  0
    1.2810   51.7990  -25.6870 N   0  0  0  0  0  0  0  0  0  0  0  0
    2.5890   51.2210  -25.7780 C   0  0  0  0  0  0  0  0  0  0  0  0
    1.2650   52.7290  -24.5460 C   0  0  0  0  0  0  0  0  0  0  0  0
   -0.1990   52.9770  -24.2460 C   0  0  0  0  0  0  0  0  0  0  0  0
    0.3230   51.0830  -15.3680 N   0  0  0  0  0  0  0  0  0  0  0  0
   -0.2630   51.5760  -14.6940 H   0  0  0  0  0  0  0  0  0  0  0  0
    1.6490   51.5510  -15.4380 C   0  0  0  0  0  0  0  0  0  0  0  0
    1.9210   52.2850  -16.6150 C   0  0  0  0  0  0  0  0  0  0  0  0
    3.1560   52.7910  -16.8010 C   0  0  0  0  0  0  0  0  0  0  0  0
    4.1170   52.5860  -15.8500 C   0  0  0  0  0  0  0  0  0  0  0  0
    3.8700   51.8850  -14.7130 C   0  0  0  0  0  0  0  0  0  0  0  0
    2.6130   51.3490  -14.4820 C   0  0  0  0  0  0  0  0  0  0  0  0
    2.3620   50.5670  -12.9560 S   0  0  0  0  0  0  0  0  0  0  0  0
    0.9830   50.9660  -12.4300 O   0  0  0  0  0  0  0  0  0  0  0  0
    3.4010   50.9630  -11.9840 O   0  0  0  0  0  0  0  0  0  0  0  0
    2.3850   48.8130  -13.1650 C   0  0  0  0  0  0  0  0  0  0  0  0
    3.5420   48.2280  -12.4160 C   0  0  0  0  0  0  0  0  0  0  0  0
    1.0850   48.2000  -12.6770 C   0  0  0  0  0  0  0  0  0  0  0  0
   -2.0274   47.5768  -15.4081 H   0  0  0  0  0  0  0  0  0  0  0  0
   -0.8986   51.4165  -22.4210 H   0  0  0  0  0  0  0  0  0  0  0  0
   -3.2689   47.9385  -22.6310 H   0  0  0  0  0  0  0  0  0  0  0  0
   -2.1939   47.1095  -20.5946 H   0  0  0  0  0  0  0  0  0  0  0  0
    1.0322   52.4894  -19.3146 H   0  0  0  0  0  0  0  0  0  0  0  0
   -0.5721   51.9365  -18.8980 H   0  0  0  0  0  0  0  0  0  0  0  0
   -0.2914   52.7284  -20.4301 H   0  0  0  0  0  0  0  0  0  0  0  0
   -4.6249   51.1206  -23.9057 H   0  0  0  0  0  0  0  0  0  0  0  0
   -3.4844   51.9947  -22.9399 H   0  0  0  0  0  0  0  0  0  0  0  0
   -3.9727   52.0823  -25.8082 H   0  0  0  0  0  0  0  0  0  0  0  0
   -3.2443   53.2895  -24.7040 H   0  0  0  0  0  0  0  0  0  0  0  0
   -2.1275   52.2770  -26.6299 H   0  0  0  0  0  0  0  0  0  0  0  0
   -0.4949   50.5157  -25.5123 H   0  0  0  0  0  0  0  0  0  0  0  0
   -1.6303   50.4434  -26.8864 H   0  0  0  0  0  0  0  0  0  0  0  0
   -1.7966   48.7185  -24.9239 H   0  0  0  0  0  0  0  0  0  0  0  0
   -3.2093   49.3076  -25.6874 H   0  0  0  0  0  0  0  0  0  0  0  0
   -0.8485   53.2886  -27.4810 H   0  0  0  0  0  0  0  0  0  0  0  0
    0.0747   54.4393  -26.4865 H   0  0  0  0  0  0  0  0  0  0  0  0
    1.8886   53.3062  -27.0040 H   0  0  0  0  0  0  0  0  0  0  0  0
    0.9860   52.0364  -27.7547 H   0  0  0  0  0  0  0  0  0  0  0  0
    2.6216   50.5404  -26.6030 H   0  0  0  0  0  0  0  0  0  0  0  0
    2.8103   50.6951  -24.8728 H   0  0  0  0  0  0  0  0  0  0  0  0
    3.3118   51.9959  -25.9261 H   0  0  0  0  0  0  0  0  0  0  0  0
    1.7543   53.6451  -24.8034 H   0  0  0  0  0  0  0  0  0  0  0  0
    1.7810   52.3271  -23.6992 H   0  0  0  0  0  0  0  0  0  0  0  0
   -0.5778   52.1887  -23.6296 H   0  0  0  0  0  0  0  0  0  0  0  0
   -0.3106   53.9085  -23.7314 H   0  0  0  0  0  0  0  0  0  0  0  0
    1.1838   52.4314  -17.3222 H   0  0  0  0  0  0  0  0  0  0  0  0
    3.3748   53.3288  -17.6542 H   0  0  0  0  0  0  0  0  0  0  0  0
    5.0603   52.9764  -16.0010 H   0  0  0  0  0  0  0  0  0  0  0  0
    4.6214   51.7510  -14.0184 H   0  0  0  0  0  0  0  0  0  0  0  0
    2.4922   48.5932  -14.2067 H   0  0  0  0  0  0  0  0  0  0  0  0
    3.4387   48.4456  -11.3735 H   0  0  0  0  0  0  0  0  0  0  0  0
    4.4541   48.6526  -12.7803 H   0  0  0  0  0  0  0  0  0  0  0  0
    3.5601   47.1678  -12.5590 H   0  0  0  0  0  0  0  0  0  0  0  0
    0.9606   48.4100  -11.6352 H   0  0  0  0  0  0  0  0  0  0  0  0
    1.1118   47.1409  -12.8267 H   0  0  0  0  0  0  0  0  0  0  0  0
    0.2661   48.6170  -13.2251 H   0  0  0  0  0  0  0  0  0  0  0  0
  1 10  1  1  0  0  0
  1  8  1  0  0  0  0
  1  2  1  0  0  0  0
  2  4  1  0  0  0  0
  3  2  1  0  0  0  0
  4  5  1  0  0  0  0
  4 47  1  0  0  0  0
  5  6  1  0  0  0  0
  7  5  2  0  0  0  0
  7 33  1  0  0  0  0
  8  7  1  0  0  0  0
  9  8  1  0  0  0  0
 11 10  1  0  0  0  0
 12 10  1  0  0  0  0
 13 12  1  0  0  0  0
 13 18  1  0  0  0  0
 14 13  2  0  0  0  0
 14 48  1  0  0  0  0
 15 16  2  0  0  0  0
 15 14  1  0  0  0  0
 16 17  1  0  0  0  0
 16 49  1  0  0  0  0
 17 12  2  0  0  0  0
 17 50  1  0  0  0  0
 18 19  1  0  0  0  0
 19 51  1  0  0  0  0
 19 52  1  0  0  0  0
 19 53  1  0  0  0  0
 20 21  1  0  0  0  0
 20 15  1  0  0  0  0
 21 54  1  0  0  0  0
 21 55  1  0  0  0  0
 22 21  1  0  0  0  0
 22 56  1  0  0  0  0
 22 57  1  0  0  0  0
 23 26  1  0  0  0  0
 23 22  1  0  0  0  0
 23 58  1  6  0  0  0
 24 23  1  0  0  0  0
 24 25  1  0  0  0  0
 24 59  1  0  0  0  0
 24 60  1  0  0  0  0
 25 20  1  0  0  0  0
 25 61  1  0  0  0  0
 25 62  1  0  0  0  0
 26 32  1  0  0  0  0
 27 26  1  0  0  0  0
 27 63  1  0  0  0  0
 27 64  1  0  0  0  0
 28 27  1  0  0  0  0
 28 29  1  0  0  0  0
 28 65  1  0  0  0  0
 28 66  1  0  0  0  0
 29 31  1  0  0  0  0
 30 29  1  0  0  0  0
 30 67  1  0  0  0  0
 30 68  1  0  0  0  0
 30 69  1  0  0  0  0
 31 32  1  0  0  0  0
 31 70  1  0  0  0  0
 31 71  1  0  0  0  0
 32 72  1  0  0  0  0
 32 73  1  0  0  0  0
 33 34  1  0  0  0  0
 35 33  1  0  0  0  0
 35 40  2  0  0  0  0
 36 35  1  0  0  0  0
 36 74  1  0  0  0  0
 37 36  2  0  0  0  0
 37 38  1  0  0  0  0
 37 75  1  0  0  0  0
 38 39  2  0  0  0  0
 38 76  1  0  0  0  0
 39 40  1  0  0  0  0
 39 77  1  0  0  0  0
 40 41  1  0  0  0  0
 41 42  2  0  0  0  0
 41 43  2  0  0  0  0
 44 41  1  0  0  0  0
 44 46  1  0  0  0  0
 44 45  1  0  0  0  0
 44 78  1  0  0  0  0
 45 79  1  0  0  0  0
 45 80  1  0  0  0  0
 45 81  1  0  0  0  0
 46 82  1  0  0  0  0
 46 83  1  0  0  0  0
 46 84  1  0  0  0  0
M  END
>  <REMARK>
 VINA RESULT:      -7.7      3.432      6.157
  9 active torsions:
  status: ('A' for Active; 'I' for Inactive)
    1  A    between atoms: O_2  and  C_3 
    2  A    between atoms: C_4  and  N_5 
    3  A    between atoms: N_5  and  C_7 
    4  A    between atoms: C_13  and  N_14 
    5  A    between atoms: N_14  and  C_16 
    6  A    between atoms: C_21  and  S_22 
    7  A    between atoms: S_22  and  C_25 
    8  A    between atoms: C_32  and  N_33 
    9  A    between atoms: C_36  and  N_37 

>  <TORSDO>
F 9

$$$$
