resistance_project/docking/8faf60323ce63d5a/P00533_WT/docked/molecule_0003_out.pdbqt
 OpenBabel09142609533D

 59 62  0  0  1  0  0  0  0  0999 V2000
   -0.9530   50.0420  -20.8190 C   0  0  1  0  0  0  0  0  0  0  0  0
   -0.6810   51.0340  -21.7330 C   0  0  0  0  0  0  0  0  0  0  0  0
    0.1300   52.1220  -21.4530 C   0  0  0  0  0  0  0  0  0  0  0  0
    0.6810   52.2020  -20.1970 C   0  0  0  0  0  0  0  0  0  0  0  0
    1.5100   53.1030  -19.5700 C   0  0  0  0  0  0  0  0  0  0  0  0
    1.7550   52.7020  -18.3120 N   0  0  0  0  0  0  0  0  0  0  0  0
    2.3360   53.1800  -17.6230 H   0  0  0  0  0  0  0  0  0  0  0  0
    1.0980   51.5710  -18.1390 N   0  0  0  0  0  0  0  0  0  0  0  0
    0.4290   51.2220  -19.2540 C   0  0  0  0  0  0  0  0  0  0  0  0
   -0.3890   50.1260  -19.5410 C   0  0  0  0  0  0  0  0  0  0  0  0
   -1.2200   50.9940  -23.0210 O   0  0  0  0  0  0  0  0  0  0  0  0
   -2.3150   51.8260  -23.3670 C   0  0  0  0  0  0  0  0  0  0  0  0
   -2.2830   52.1660  -24.8480 C   0  0  0  0  0  0  0  0  0  0  0  0
   -0.9120   51.9890  -25.4240 C   0  0  0  0  0  0  0  0  0  0  0  0
   -0.2200   53.2860  -25.4410 N   0  0  0  0  0  0  0  0  0  0  0  0
    0.3510   53.3910  -26.7940 C   0  0  0  0  0  0  0  0  0  0  0  0
    1.3400   52.2430  -26.8780 C   0  0  0  0  0  0  0  0  0  0  0  0
    1.6860   52.0220  -25.4020 C   0  0  0  0  0  0  0  0  0  0  0  0
    1.0210   53.1940  -24.6740 C   0  0  0  0  0  0  0  0  0  0  0  0
   -1.7760   48.9820  -21.1760 O   0  0  0  0  0  0  0  0  0  0  0  0
   -1.3010   47.6450  -21.1090 C   0  0  0  0  0  0  0  0  0  0  0  0
    1.1410   50.8460  -16.8680 C   0  0  0  0  0  0  0  0  0  0  0  0
    1.2280   51.8200  -15.6880 C   0  0  2  0  0  0  0  0  0  0  0  0
    2.8290   51.7160  -14.9310 Cl  0  0  0  0  0  0  0  0  0  0  0  0
    0.1570   51.5500  -14.7050 C   0  0  0  0  0  0  0  0  0  0  0  0
   -0.8580   50.6670  -15.0070 C   0  0  0  0  0  0  0  0  0  0  0  0
   -1.8940   50.3560  -14.1550 C   0  0  0  0  0  0  0  0  0  0  0  0
   -1.9280   50.9580  -12.9160 C   0  0  0  0  0  0  0  0  0  0  0  0
   -0.9210   51.8440  -12.5950 C   0  0  0  0  0  0  0  0  0  0  0  0
    0.1110   52.1500  -13.4550 C   0  0  0  0  0  0  0  0  0  0  0  0
   -1.3625   49.1437  -20.4063 H   0  0  0  0  0  0  0  0  0  0  0  0
    0.3139   52.8474  -22.1636 H   0  0  0  0  0  0  0  0  0  0  0  0
    1.8878   53.9605  -20.0025 H   0  0  0  0  0  0  0  0  0  0  0  0
   -0.5719   49.3996  -18.8311 H   0  0  0  0  0  0  0  0  0  0  0  0
   -3.2285   51.3158  -23.1432 H   0  0  0  0  0  0  0  0  0  0  0  0
   -2.2496   52.7334  -22.8038 H   0  0  0  0  0  0  0  0  0  0  0  0
   -2.9633   51.5234  -25.3667 H   0  0  0  0  0  0  0  0  0  0  0  0
   -2.5645   53.1920  -24.9623 H   0  0  0  0  0  0  0  0  0  0  0  0
   -0.3590   51.2969  -24.8240 H   0  0  0  0  0  0  0  0  0  0  0  0
   -0.9890   51.6111  -26.4221 H   0  0  0  0  0  0  0  0  0  0  0  0
   -0.4128   53.2875  -27.5361 H   0  0  0  0  0  0  0  0  0  0  0  0
    0.8130   54.3402  -26.9686 H   0  0  0  0  0  0  0  0  0  0  0  0
    2.2057   52.5148  -27.4450 H   0  0  0  0  0  0  0  0  0  0  0  0
    0.9553   51.3735  -27.3687 H   0  0  0  0  0  0  0  0  0  0  0  0
    2.7458   52.0377  -25.2553 H   0  0  0  0  0  0  0  0  0  0  0  0
    1.3468   51.0733  -25.0417 H   0  0  0  0  0  0  0  0  0  0  0  0
    0.8373   52.9707  -23.6438 H   0  0  0  0  0  0  0  0  0  0  0  0
    1.5999   54.0931  -24.6373 H   0  0  0  0  0  0  0  0  0  0  0  0
   -2.0750   46.9755  -21.4214 H   0  0  0  0  0  0  0  0  0  0  0  0
   -1.0171   47.4174  -20.1028 H   0  0  0  0  0  0  0  0  0  0  0  0
   -0.4531   47.5351  -21.7524 H   0  0  0  0  0  0  0  0  0  0  0  0
    1.9983   50.2058  -16.8583 H   0  0  0  0  0  0  0  0  0  0  0  0
    0.2445   50.2699  -16.7715 H   0  0  0  0  0  0  0  0  0  0  0  0
    1.0901   52.8162  -16.0534 H   0  0  0  0  0  0  0  0  0  0  0  0
   -0.8401   50.2094  -15.9318 H   0  0  0  0  0  0  0  0  0  0  0  0
   -2.6278   49.6877  -14.4377 H   0  0  0  0  0  0  0  0  0  0  0  0
   -2.6860   50.7516  -12.2468 H   0  0  0  0  0  0  0  0  0  0  0  0
   -0.9414   52.2984  -11.6686 H   0  0  0  0  0  0  0  0  0  0  0  0
    0.8434   52.8197  -13.1718 H   0  0  0  0  0  0  0  0  0  0  0  0
  1 10  1  0  0  0  0
  1 31  1  6  0  0  0
  2  3  2  0  0  0  0
  2  1  1  0  0  0  0
  3  4  1  0  0  0  0
  3 32  1  0  0  0  0
  4  5  2  0  0  0  0
  4  9  1  0  0  0  0
  5  6  1  0  0  0  0
  5 33  1  0  0  0  0
  6  8  1  0  0  0  0
  6  7  1  0  0  0  0
  8 22  1  0  0  0  0
  9  8  1  0  0  0  0
 10  9  2  0  0  0  0
 10 34  1  0  0  0  0
 11  2  1  0  0  0  0
 12 11  1  0  0  0  0
 12 35  1  0  0  0  0
 12 36  1  0  0  0  0
 13 12  1  0  0  0  0
 13 37  1  0  0  0  0
 13 38  1  0  0  0  0
 14 13  1  0  0  0  0
 14 39  1  0  0  0  0
 14 40  1  0  0  0  0
 15 14  1  0  0  0  0
 15 19  1  0  0  0  0
 16 15  1  0  0  0  0
 16 41  1  0  0  0  0
 16 42  1  0  0  0  0
 17 16  1  0  0  0  0
 17 18  1  0  0  0  0
 17 43  1  0  0  0  0
 17 44  1  0  0  0  0
 18 19  1  0  0  0  0
 18 45  1  0  0  0  0
 18 46  1  0  0  0  0
 19 47  1  0  0  0  0
 19 48  1  0  0  0  0
 20 21  1  0  0  0  0
 20  1  1  0  0  0  0
 21 49  1  0  0  0  0
 21 50  1  0  0  0  0
 21 51  1  0  0  0  0
 22 23  1  0  0  0  0
 22 52  1  0  0  0  0
 22 53  1  0  0  0  0
 23 24  1  0  0  0  0
 23 25  1  0  0  0  0
 23 54  1  6  0  0  0
 25 30  1  0  0  0  0
 26 25  2  0  0  0  0
 26 27  1  0  0  0  0
 26 55  1  0  0  0  0
 27 28  2  0  0  0  0
 27 56  1  0  0  0  0
 28 29  1  0  0  0  0
 28 57  1  0  0  0  0
 29 58  1  0  0  0  0
 30 29  2  0  0  0  0
 30 59  1  0  0  0  0
M  END
>  <MODEL>
1

>  <REMARK>
 VINA RESULT:      -6.9      0.000      0.000
  9 active torsions:
  status: ('A' for Active; 'I' for Inactive)
    1  A    between atoms: O_2  and  C_3 
    2  A    between atoms: C_4  and  O_5 
    3  A    between atoms: O_5  and  C_6 
    4  A    between atoms: C_6  and  C_7 
    5  A    between atoms: C_7  and  C_8 
    6  A    between atoms: C_8  and  N_9 
    7  A    between atoms: N_19  and  C_20 
    8  A    between atoms: C_20  and  C_21 
    9  A    between atoms: C_21  and  C_23 

>  <TORSDO>
F 9

$$$$
resistance_project/docking/8faf60323ce63d5a/P00533_WT/docked/molecule_0003_out.pdbqt
 OpenBabel09142609533D

 59 62  0  0  1  0  0  0  0  0999 V2000
    0.2500   52.0170  -20.9070 C   0  0  2  0  0  0  0  0  0  0  0  0
   -0.4000   50.8450  -21.2210 C   0  0  0  0  0  0  0  0  0  0  0  0
   -0.6190   49.8300  -20.3040 C   0  0  0  0  0  0  0  0  0  0  0  0
   -0.1580   50.0150  -19.0220 C   0  0  0  0  0  0  0  0  0  0  0  0
   -0.1880   49.2570  -17.8750 C   0  0  0  0  0  0  0  0  0  0  0  0
    0.4170   49.9180  -16.8740 N   0  0  0  0  0  0  0  0  0  0  0  0
    0.5390   49.5910  -15.9160 H   0  0  0  0  0  0  0  0  0  0  0  0
    0.8230   51.0710  -17.3710 N   0  0  0  0  0  0  0  0  0  0  0  0
    0.4980   51.1810  -18.6720 C   0  0  0  0  0  0  0  0  0  0  0  0
    0.7160   52.2030  -19.6010 C   0  0  0  0  0  0  0  0  0  0  0  0
   -0.8840   50.6130  -22.5110 O   0  0  0  0  0  0  0  0  0  0  0  0
   -2.1830   51.0450  -22.8780 C   0  0  0  0  0  0  0  0  0  0  0  0
   -2.2850   51.2180  -24.3850 C   0  0  0  0  0  0  0  0  0  0  0  0
   -1.5520   52.4390  -24.8490 C   0  0  0  0  0  0  0  0  0  0  0  0
   -0.9620   52.1790  -26.1720 N   0  0  0  0  0  0  0  0  0  0  0  0
    0.1840   51.2940  -25.9060 C   0  0  0  0  0  0  0  0  0  0  0  0
    1.1150   52.1280  -25.0460 C   0  0  0  0  0  0  0  0  0  0  0  0
    0.7190   53.5520  -25.4470 C   0  0  0  0  0  0  0  0  0  0  0  0
   -0.2370   53.3630  -26.6300 C   0  0  0  0  0  0  0  0  0  0  0  0
    0.4310   52.9880  -21.8830 O   0  0  0  0  0  0  0  0  0  0  0  0
    1.4100   54.0040  -21.7180 C   0  0  0  0  0  0  0  0  0  0  0  0
    1.5290   52.0550  -16.5480 C   0  0  0  0  0  0  0  0  0  0  0  0
    1.8830   51.4640  -15.1790 C   0  0  2  0  0  0  0  0  0  0  0  0
    0.6480   51.9100  -13.9860 Cl  0  0  0  0  0  0  0  0  0  0  0  0
    3.2250   51.9120  -14.7460 C   0  0  0  0  0  0  0  0  0  0  0  0
    4.0690   52.5410  -15.6370 C   0  0  0  0  0  0  0  0  0  0  0  0
    5.3330   52.9910  -15.3220 C   0  0  0  0  0  0  0  0  0  0  0  0
    5.7930   52.8060  -14.0370 C   0  0  0  0  0  0  0  0  0  0  0  0
    4.9640   52.1800  -13.1310 C   0  0  0  0  0  0  0  0  0  0  0  0
    3.7010   51.7320  -13.4560 C   0  0  0  0  0  0  0  0  0  0  0  0
    0.6919   52.9835  -21.0320 H   0  0  0  0  0  0  0  0  0  0  0  0
   -1.1115   48.9643  -20.5740 H   0  0  0  0  0  0  0  0  0  0  0  0
   -0.6122   48.3196  -17.7950 H   0  0  0  0  0  0  0  0  0  0  0  0
    1.2067   53.0698  -19.3310 H   0  0  0  0  0  0  0  0  0  0  0  0
   -2.8989   50.3167  -22.5586 H   0  0  0  0  0  0  0  0  0  0  0  0
   -2.3780   51.9869  -22.4092 H   0  0  0  0  0  0  0  0  0  0  0  0
   -1.8647   50.3578  -24.8628 H   0  0  0  0  0  0  0  0  0  0  0  0
   -3.3180   51.3296  -24.6406 H   0  0  0  0  0  0  0  0  0  0  0  0
   -2.2338   53.2609  -24.9170 H   0  0  0  0  0  0  0  0  0  0  0  0
   -0.7766   52.6781  -24.1516 H   0  0  0  0  0  0  0  0  0  0  0  0
    0.6642   51.0117  -26.8196 H   0  0  0  0  0  0  0  0  0  0  0  0
   -0.1075   50.3833  -25.4258 H   0  0  0  0  0  0  0  0  0  0  0  0
    2.1409   51.9293  -25.2763 H   0  0  0  0  0  0  0  0  0  0  0  0
    1.0281   51.9327  -23.9976 H   0  0  0  0  0  0  0  0  0  0  0  0
    0.2266   54.0500  -24.6381 H   0  0  0  0  0  0  0  0  0  0  0  0
    1.5660   54.1551  -25.6994 H   0  0  0  0  0  0  0  0  0  0  0  0
   -0.8864   54.2040  -26.7560 H   0  0  0  0  0  0  0  0  0  0  0  0
    0.2359   53.2648  -27.5848 H   0  0  0  0  0  0  0  0  0  0  0  0
    1.3981   54.6524  -22.5691 H   0  0  0  0  0  0  0  0  0  0  0  0
    2.3771   53.5557  -21.6246 H   0  0  0  0  0  0  0  0  0  0  0  0
    1.1923   54.5693  -20.8360 H   0  0  0  0  0  0  0  0  0  0  0  0
    0.9022   52.9110  -16.4093 H   0  0  0  0  0  0  0  0  0  0  0  0
    2.4340   52.3335  -17.0463 H   0  0  0  0  0  0  0  0  0  0  0  0
    1.9058   50.3974  -15.2605 H   0  0  0  0  0  0  0  0  0  0  0  0
    3.7323   52.6840  -16.6020 H   0  0  0  0  0  0  0  0  0  0  0  0
    5.9207   53.4554  -16.0319 H   0  0  0  0  0  0  0  0  0  0  0  0
    6.7336   53.1276  -13.7598 H   0  0  0  0  0  0  0  0  0  0  0  0
    5.3037   52.0404  -12.1666 H   0  0  0  0  0  0  0  0  0  0  0  0
    3.1150   51.2667  -12.7453 H   0  0  0  0  0  0  0  0  0  0  0  0
  1 10  1  0  0  0  0
  1 31  1  6  0  0  0
  2  1  1  0  0  0  0
  2  3  2  0  0  0  0
  3  4  1  0  0  0  0
  3 32  1  0  0  0  0
  4  9  1  0  0  0  0
  4  5  2  0  0  0  0
  5  6  1  0  0  0  0
  5 33  1  0  0  0  0
  6  7  1  0  0  0  0
  8  6  1  0  0  0  0
  8 22  1  0  0  0  0
  9  8  1  0  0  0  0
 10  9  2  0  0  0  0
 10 34  1  0  0  0  0
 11  2  1  0  0  0  0
 12 11  1  0  0  0  0
 12 35  1  0  0  0  0
 12 36  1  0  0  0  0
 13 12  1  0  0  0  0
 13 37  1  0  0  0  0
 13 38  1  0  0  0  0
 14 13  1  0  0  0  0
 14 39  1  0  0  0  0
 14 40  1  0  0  0  0
 15 16  1  0  0  0  0
 15 14  1  0  0  0  0
 16 17  1  0  0  0  0
 16 41  1  0  0  0  0
 16 42  1  0  0  0  0
 17 43  1  0  0  0  0
 17 44  1  0  0  0  0
 18 17  1  0  0  0  0
 18 45  1  0  0  0  0
 18 46  1  0  0  0  0
 19 15  1  0  0  0  0
 19 18  1  0  0  0  0
 19 47  1  0  0  0  0
 19 48  1  0  0  0  0
 20 21  1  0  0  0  0
 20  1  1  0  0  0  0
 21 49  1  0  0  0  0
 21 50  1  0  0  0  0
 21 51  1  0  0  0  0
 22 23  1  0  0  0  0
 22 52  1  0  0  0  0
 22 53  1  0  0  0  0
 23 25  1  0  0  0  0
 23 24  1  0  0  0  0
 23 54  1  6  0  0  0
 25 30  2  0  0  0  0
 26 27  2  0  0  0  0
 26 25  1  0  0  0  0
 26 55  1  0  0  0  0
 27 28  1  0  0  0  0
 27 56  1  0  0  0  0
 28 29  2  0  0  0  0
 28 57  1  0  0  0  0
 29 58  1  0  0  0  0
 30 29  1  0  0  0  0
 30 59  1  0  0  0  0
M  END
>  <REMARK>
 VINA RESULT:      -6.9      2.110      3.573
  9 active torsions:
  status: ('A' for Active; 'I' for Inactive)
    1  A    between atoms: O_2  and  C_3 
    2  A    between atoms: C_4  and  O_5 
    3  A    between atoms: O_5  and  C_6 
    4  A    between atoms: C_6  and  C_7 
    5  A    between atoms: C_7  and  C_8 
    6  A    between atoms: C_8  and  N_9 
    7  A    between atoms: N_19  and  C_20 
    8  A    between atoms: C_20  and  C_21 
    9  A    between atoms: C_21  and  C_23 

>  <TORSDO>
F 9

$$$$
resistance_project/docking/8faf60323ce63d5a/P00533_WT/docked/molecule_0003_out.pdbqt
 OpenBabel09142609533D

 59 62  0  0  1  0  0  0  0  0999 V2000
   -0.5060   49.6510  -16.6570 C   0  0  2  0  0  0  0  0  0  0  0  0
    0.2710   50.5400  -15.9490 C   0  0  0  0  0  0  0  0  0  0  0  0
    0.9890   51.5630  -16.5480 C   0  0  0  0  0  0  0  0  0  0  0  0
    0.9120   51.6840  -17.9140 C   0  0  0  0  0  0  0  0  0  0  0  0
    1.4640   52.5470  -18.8320 C   0  0  0  0  0  0  0  0  0  0  0  0
    1.0560   52.2220  -20.0700 N   0  0  0  0  0  0  0  0  0  0  0  0
    1.3120   52.6920  -20.9370 H   0  0  0  0  0  0  0  0  0  0  0  0
    0.2610   51.1760  -19.9450 N   0  0  0  0  0  0  0  0  0  0  0  0
    0.1390   50.8090  -18.6560 C   0  0  0  0  0  0  0  0  0  0  0  0
   -0.5840   49.7780  -18.0480 C   0  0  0  0  0  0  0  0  0  0  0  0
    0.3800   50.4540  -14.5600 O   0  0  0  0  0  0  0  0  0  0  0  0
    0.0130   51.5520  -13.7410 C   0  0  0  0  0  0  0  0  0  0  0  0
   -1.4980   51.6330  -13.5980 C   0  0  0  0  0  0  0  0  0  0  0  0
   -1.9050   51.8230  -12.1690 C   0  0  0  0  0  0  0  0  0  0  0  0
   -3.3100   51.4160  -12.0050 N   0  0  0  0  0  0  0  0  0  0  0  0
   -4.0870   52.6460  -12.2310 C   0  0  0  0  0  0  0  0  0  0  0  0
   -3.6540   53.5780  -11.1150 C   0  0  0  0  0  0  0  0  0  0  0  0
   -3.1900   52.5870  -10.0430 C   0  0  0  0  0  0  0  0  0  0  0  0
   -3.6040   51.2150  -10.5870 C   0  0  0  0  0  0  0  0  0  0  0  0
   -1.1960   48.6510  -15.9840 O   0  0  0  0  0  0  0  0  0  0  0  0
   -2.5830   48.7890  -15.7120 C   0  0  0  0  0  0  0  0  0  0  0  0
   -0.3720   50.5510  -21.1080 C   0  0  0  0  0  0  0  0  0  0  0  0
   -1.0620   51.6030  -21.9830 C   0  0  2  0  0  0  0  0  0  0  0  0
   -2.8120   51.3170  -22.0110 Cl  0  0  0  0  0  0  0  0  0  0  0  0
   -0.5010   51.5960  -23.3510 C   0  0  0  0  0  0  0  0  0  0  0  0
   -1.2500   51.1240  -24.4080 C   0  0  0  0  0  0  0  0  0  0  0  0
   -0.8100   51.0800  -25.7130 C   0  0  0  0  0  0  0  0  0  0  0  0
    0.4600   51.5360  -25.9920 C   0  0  0  0  0  0  0  0  0  0  0  0
    1.2250   52.0130  -24.9490 C   0  0  0  0  0  0  0  0  0  0  0  0
    0.7760   52.0520  -23.6460 C   0  0  0  0  0  0  0  0  0  0  0  0
   -1.1141   48.8018  -16.8892 H   0  0  0  0  0  0  0  0  0  0  0  0
    1.5622   52.2120  -15.9865 H   0  0  0  0  0  0  0  0  0  0  0  0
    2.0979   53.3286  -18.6035 H   0  0  0  0  0  0  0  0  0  0  0  0
   -1.1584   49.1297  -18.6091 H   0  0  0  0  0  0  0  0  0  0  0  0
    0.3730   52.4569  -14.1843 H   0  0  0  0  0  0  0  0  0  0  0  0
    0.4440   51.4173  -12.7710 H   0  0  0  0  0  0  0  0  0  0  0  0
   -1.9311   50.7261  -13.9652 H   0  0  0  0  0  0  0  0  0  0  0  0
   -1.8437   52.4752  -14.1602 H   0  0  0  0  0  0  0  0  0  0  0  0
   -1.7977   52.8533  -11.9008 H   0  0  0  0  0  0  0  0  0  0  0  0
   -1.2825   51.2251  -11.5365 H   0  0  0  0  0  0  0  0  0  0  0  0
   -5.1366   52.4468  -12.1717 H   0  0  0  0  0  0  0  0  0  0  0  0
   -3.9147   53.0642  -13.2007 H   0  0  0  0  0  0  0  0  0  0  0  0
   -4.4709   54.1749  -10.7666 H   0  0  0  0  0  0  0  0  0  0  0  0
   -2.9049   54.2844  -11.4060 H   0  0  0  0  0  0  0  0  0  0  0  0
   -3.6733   52.7856   -9.1092 H   0  0  0  0  0  0  0  0  0  0  0  0
   -2.1384   52.6512   -9.8562 H   0  0  0  0  0  0  0  0  0  0  0  0
   -3.0171   50.4255  -10.1661 H   0  0  0  0  0  0  0  0  0  0  0  0
   -4.6102   50.9242  -10.3683 H   0  0  0  0  0  0  0  0  0  0  0  0
   -2.9320   47.9226  -15.1901 H   0  0  0  0  0  0  0  0  0  0  0  0
   -3.1186   48.8907  -16.6327 H   0  0  0  0  0  0  0  0  0  0  0  0
   -2.7434   49.6577  -15.1082 H   0  0  0  0  0  0  0  0  0  0  0  0
    0.3751   50.0489  -21.6865 H   0  0  0  0  0  0  0  0  0  0  0  0
   -1.1079   49.8542  -20.7648 H   0  0  0  0  0  0  0  0  0  0  0  0
   -0.8836   52.5708  -21.5629 H   0  0  0  0  0  0  0  0  0  0  0  0
   -2.2028   50.7811  -24.2086 H   0  0  0  0  0  0  0  0  0  0  0  0
   -1.4169   50.7144  -26.4633 H   0  0  0  0  0  0  0  0  0  0  0  0
    0.8286   51.5209  -26.9558 H   0  0  0  0  0  0  0  0  0  0  0  0
    2.1766   52.3564  -25.1527 H   0  0  0  0  0  0  0  0  0  0  0  0
    1.3843   52.4171  -22.8966 H   0  0  0  0  0  0  0  0  0  0  0  0
  1 20  1  0  0  0  0
  1  2  1  0  0  0  0
  1 31  1  6  0  0  0
  2 11  1  0  0  0  0
  3  2  2  0  0  0  0
  3 32  1  0  0  0  0
  4  3  1  0  0  0  0
  5  4  2  0  0  0  0
  5 33  1  0  0  0  0
  6  8  1  0  0  0  0
  6  5  1  0  0  0  0
  7  6  1  0  0  0  0
  8  9  1  0  0  0  0
  9 10  2  0  0  0  0
  9  4  1  0  0  0  0
 10  1  1  0  0  0  0
 10 34  1  0  0  0  0
 11 12  1  0  0  0  0
 12 13  1  0  0  0  0
 12 35  1  0  0  0  0
 12 36  1  0  0  0  0
 13 14  1  0  0  0  0
 13 37  1  0  0  0  0
 13 38  1  0  0  0  0
 14 15  1  0  0  0  0
 14 39  1  0  0  0  0
 14 40  1  0  0  0  0
 15 19  1  0  0  0  0
 16 15  1  0  0  0  0
 16 17  1  0  0  0  0
 16 41  1  0  0  0  0
 16 42  1  0  0  0  0
 17 18  1  0  0  0  0
 17 43  1  0  0  0  0
 17 44  1  0  0  0  0
 18 45  1  0  0  0  0
 18 46  1  0  0  0  0
 19 18  1  0  0  0  0
 19 47  1  0  0  0  0
 19 48  1  0  0  0  0
 20 21  1  0  0  0  0
 21 49  1  0  0  0  0
 21 50  1  0  0  0  0
 21 51  1  0  0  0  0
 22  8  1  0  0  0  0
 22 52  1  0  0  0  0
 22 53  1  0  0  0  0
 23 22  1  0  0  0  0
 23 54  1  1  0  0  0
 24 23  1  0  0  0  0
 25 23  1  0  0  0  0
 26 25  2  0  0  0  0
 26 55  1  0  0  0  0
 27 26  1  0  0  0  0
 27 56  1  0  0  0  0
 28 27  2  0  0  0  0
 28 29  1  0  0  0  0
 28 57  1  0  0  0  0
 29 30  2  0  0  0  0
 29 58  1  0  0  0  0
 30 25  1  0  0  0  0
 30 59  1  0  0  0  0
M  END
>  <REMARK>
 VINA RESULT:      -6.8      3.206      9.651
  9 active torsions:
  status: ('A' for Active; 'I' for Inactive)
    1  A    between atoms: O_2  and  C_3 
    2  A    between atoms: C_4  and  O_5 
    3  A    between atoms: O_5  and  C_6 
    4  A    between atoms: C_6  and  C_7 
    5  A    between atoms: C_7  and  C_8 
    6  A    between atoms: C_8  and  N_9 
    7  A    between atoms: N_19  and  C_20 
    8  A    between atoms: C_20  and  C_21 
    9  A    between atoms: C_21  and  C_23 

>  <TORSDO>
F 9

$$$$
resistance_project/docking/8faf60323ce63d5a/P00533_WT/docked/molecule_0003_out.pdbqt
 OpenBabel09142609533D

 59 62  0  0  1  0  0  0  0  0999 V2000
    0.0750   50.2370  -18.3630 C   0  0  2  0  0  0  0  0  0  0  0  0
    0.8170   51.1470  -17.6460 C   0  0  0  0  0  0  0  0  0  0  0  0
    1.3880   52.2750  -18.2130 C   0  0  0  0  0  0  0  0  0  0  0  0
    1.1970   52.4810  -19.5580 C   0  0  0  0  0  0  0  0  0  0  0  0
    1.5960   53.4550  -20.4430 C   0  0  0  0  0  0  0  0  0  0  0  0
    1.1280   53.1760  -21.6710 N   0  0  0  0  0  0  0  0  0  0  0  0
    1.2720   53.7280  -22.5160 H   0  0  0  0  0  0  0  0  0  0  0  0
    0.4450   52.0510  -21.5720 N   0  0  0  0  0  0  0  0  0  0  0  0
    0.4560   51.5870  -20.3090 C   0  0  0  0  0  0  0  0  0  0  0  0
   -0.1190   50.4510  -19.7320 C   0  0  0  0  0  0  0  0  0  0  0  0
    1.0370   50.9770  -16.2770 O   0  0  0  0  0  0  0  0  0  0  0  0
    1.9570   51.8090  -15.5890 C   0  0  0  0  0  0  0  0  0  0  0  0
    2.4140   51.1510  -14.2970 C   0  0  0  0  0  0  0  0  0  0  0  0
    3.5690   51.8820  -13.6870 C   0  0  0  0  0  0  0  0  0  0  0  0
    4.7630   51.6920  -14.5250 N   0  0  0  0  0  0  0  0  0  0  0  0
    5.8120   51.2470  -13.5930 C   0  0  0  0  0  0  0  0  0  0  0  0
    5.9930   52.4140  -12.6410 C   0  0  0  0  0  0  0  0  0  0  0  0
    5.5170   53.5910  -13.4970 C   0  0  0  0  0  0  0  0  0  0  0  0
    5.3200   52.9920  -14.8940 C   0  0  0  0  0  0  0  0  0  0  0  0
   -0.4660   49.1300  -17.7220 O   0  0  0  0  0  0  0  0  0  0  0  0
   -1.7780   49.1790  -17.1810 C   0  0  0  0  0  0  0  0  0  0  0  0
   -0.2120   51.4480  -22.7330 C   0  0  0  0  0  0  0  0  0  0  0  0
   -0.6910   52.5280  -23.7080 C   0  0  2  0  0  0  0  0  0  0  0  0
   -2.4050   52.2810  -24.0940 Cl  0  0  0  0  0  0  0  0  0  0  0  0
    0.1340   52.5290  -24.9360 C   0  0  0  0  0  0  0  0  0  0  0  0
   -0.1790   53.3680  -25.9840 C   0  0  0  0  0  0  0  0  0  0  0  0
    0.5310   53.4360  -27.1620 C   0  0  0  0  0  0  0  0  0  0  0  0
    1.6290   52.6170  -27.3140 C   0  0  0  0  0  0  0  0  0  0  0  0
    1.9590   51.7710  -26.2770 C   0  0  0  0  0  0  0  0  0  0  0  0
    1.2410   51.7100  -25.1020 C   0  0  0  0  0  0  0  0  0  0  0  0
   -0.4918   49.3552  -18.5776 H   0  0  0  0  0  0  0  0  0  0  0  0
    1.9380   52.9378  -17.6445 H   0  0  0  0  0  0  0  0  0  0  0  0
    2.1696   54.2778  -20.2000 H   0  0  0  0  0  0  0  0  0  0  0  0
   -0.6709   49.7890  -20.2996 H   0  0  0  0  0  0  0  0  0  0  0  0
    1.4844   52.7414  -15.3603 H   0  0  0  0  0  0  0  0  0  0  0  0
    2.8104   51.9690  -16.2143 H   0  0  0  0  0  0  0  0  0  0  0  0
    2.7109   50.1444  -14.5057 H   0  0  0  0  0  0  0  0  0  0  0  0
    1.5995   51.1723  -13.6034 H   0  0  0  0  0  0  0  0  0  0  0  0
    3.3388   52.9251  -13.6244 H   0  0  0  0  0  0  0  0  0  0  0  0
    3.7562   51.5001  -12.7051 H   0  0  0  0  0  0  0  0  0  0  0  0
    6.7219   51.0419  -14.1174 H   0  0  0  0  0  0  0  0  0  0  0  0
    5.5481   50.3435  -13.0841 H   0  0  0  0  0  0  0  0  0  0  0  0
    7.0178   52.5289  -12.3555 H   0  0  0  0  0  0  0  0  0  0  0  0
    5.4633   52.3069  -11.7175 H   0  0  0  0  0  0  0  0  0  0  0  0
    4.5960   53.9847  -13.1206 H   0  0  0  0  0  0  0  0  0  0  0  0
    6.2133   54.4034  -13.4963 H   0  0  0  0  0  0  0  0  0  0  0  0
    4.6352   53.5671  -15.4816 H   0  0  0  0  0  0  0  0  0  0  0  0
    6.2006   52.9537  -15.5006 H   0  0  0  0  0  0  0  0  0  0  0  0
   -2.0138   48.2371  -16.7313 H   0  0  0  0  0  0  0  0  0  0  0  0
   -2.4786   49.3864  -17.9627 H   0  0  0  0  0  0  0  0  0  0  0  0
   -1.8302   49.9504  -16.4413 H   0  0  0  0  0  0  0  0  0  0  0  0
    0.4814   50.8054  -23.2341 H   0  0  0  0  0  0  0  0  0  0  0  0
   -1.0601   50.8895  -22.3958 H   0  0  0  0  0  0  0  0  0  0  0  0
   -0.5824   53.4849  -23.2416 H   0  0  0  0  0  0  0  0  0  0  0  0
   -0.9991   53.9856  -25.8789 H   0  0  0  0  0  0  0  0  0  0  0  0
    0.2477   54.0847  -27.9130 H   0  0  0  0  0  0  0  0  0  0  0  0
    2.1889   52.6366  -28.1807 H   0  0  0  0  0  0  0  0  0  0  0  0
    2.7804   51.1557  -26.3852 H   0  0  0  0  0  0  0  0  0  0  0  0
    1.5247   51.0604  -24.3520 H   0  0  0  0  0  0  0  0  0  0  0  0
  1 20  1  0  0  0  0
  1  2  1  0  0  0  0
  1 31  1  6  0  0  0
  2 11  1  0  0  0  0
  3  2  2  0  0  0  0
  3 32  1  0  0  0  0
  4  3  1  0  0  0  0
  5  4  2  0  0  0  0
  5 33  1  0  0  0  0
  6  8  1  0  0  0  0
  6  5  1  0  0  0  0
  7  6  1  0  0  0  0
  8  9  1  0  0  0  0
  9 10  2  0  0  0  0
  9  4  1  0  0  0  0
 10  1  1  0  0  0  0
 10 34  1  0  0  0  0
 11 12  1  0  0  0  0
 12 13  1  0  0  0  0
 12 35  1  0  0  0  0
 12 36  1  0  0  0  0
 13 14  1  0  0  0  0
 13 37  1  0  0  0  0
 13 38  1  0  0  0  0
 14 39  1  0  0  0  0
 14 40  1  0  0  0  0
 15 14  1  0  0  0  0
 15 16  1  0  0  0  0
 16 17  1  0  0  0  0
 16 41  1  0  0  0  0
 16 42  1  0  0  0  0
 17 43  1  0  0  0  0
 17 44  1  0  0  0  0
 18 17  1  0  0  0  0
 18 45  1  0  0  0  0
 18 46  1  0  0  0  0
 19 15  1  0  0  0  0
 19 18  1  0  0  0  0
 19 47  1  0  0  0  0
 19 48  1  0  0  0  0
 20 21  1  0  0  0  0
 21 49  1  0  0  0  0
 21 50  1  0  0  0  0
 21 51  1  0  0  0  0
 22  8  1  0  0  0  0
 22 52  1  0  0  0  0
 22 53  1  0  0  0  0
 23 22  1  0  0  0  0
 23 54  1  1  0  0  0
 24 23  1  0  0  0  0
 25 23  1  0  0  0  0
 26 25  2  0  0  0  0
 26 55  1  0  0  0  0
 27 26  1  0  0  0  0
 27 56  1  0  0  0  0
 28 27  2  0  0  0  0
 28 29  1  0  0  0  0
 28 57  1  0  0  0  0
 29 30  2  0  0  0  0
 29 58  1  0  0  0  0
 30 25  1  0  0  0  0
 30 59  1  0  0  0  0
M  END
>  <REMARK>
 VINA RESULT:      -6.8      3.477      9.399
  9 active torsions:
  status: ('A' for Active; 'I' for Inactive)
    1  A    between atoms: O_2  and  C_3 
    2  A    between atoms: C_4  and  O_5 
    3  A    between atoms: O_5  and  C_6 
    4  A    between atoms: C_6  and  C_7 
    5  A    between atoms: C_7  and  C_8 
    6  A    between atoms: C_8  and  N_9 
    7  A    between atoms: N_19  and  C_20 
    8  A    between atoms: C_20  and  C_21 
    9  A    between atoms: C_21  and  C_23 

>  <TORSDO>
F 9

$$$$
resistance_project/docking/8faf60323ce63d5a/P00533_WT/docked/molecule_0003_out.pdbqt
 OpenBabel09142609533D

 59 62  0  0  1  0  0  0  0  0999 V2000
   -1.6290   49.8450  -18.1570 C   0  0  2  0  0  0  0  0  0  0  0  0
   -0.8100   49.6400  -17.0700 C   0  0  0  0  0  0  0  0  0  0  0  0
    0.3440   50.3710  -16.8420 C   0  0  0  0  0  0  0  0  0  0  0  0
    0.6750   51.3450  -17.7530 C   0  0  0  0  0  0  0  0  0  0  0  0
    1.7090   52.2450  -17.8600 C   0  0  0  0  0  0  0  0  0  0  0  0
    1.5550   52.9900  -18.9670 N   0  0  0  0  0  0  0  0  0  0  0  0
    2.1750   53.7330  -19.2910 H   0  0  0  0  0  0  0  0  0  0  0  0
    0.4480   52.5770  -19.5530 N   0  0  0  0  0  0  0  0  0  0  0  0
   -0.1260   51.5780  -18.8560 C   0  0  0  0  0  0  0  0  0  0  0  0
   -1.2900   50.8380  -19.0830 C   0  0  0  0  0  0  0  0  0  0  0  0
   -1.1070   48.6610  -16.1190 O   0  0  0  0  0  0  0  0  0  0  0  0
   -1.3560   49.0210  -14.7710 C   0  0  0  0  0  0  0  0  0  0  0  0
   -2.7380   49.6360  -14.6260 C   0  0  0  0  0  0  0  0  0  0  0  0
   -2.9660   50.1570  -13.2410 C   0  0  0  0  0  0  0  0  0  0  0  0
   -2.6480   51.5930  -13.2020 N   0  0  0  0  0  0  0  0  0  0  0  0
   -1.8520   51.7710  -11.9760 C   0  0  0  0  0  0  0  0  0  0  0  0
   -2.7980   51.3910  -10.8530 C   0  0  0  0  0  0  0  0  0  0  0  0
   -4.1640   51.6590  -11.4910 C   0  0  0  0  0  0  0  0  0  0  0  0
   -3.8360   52.3530  -12.8170 C   0  0  0  0  0  0  0  0  0  0  0  0
   -2.7700   49.0690  -18.3160 O   0  0  0  0  0  0  0  0  0  0  0  0
   -3.9650   49.6400  -18.8320 C   0  0  0  0  0  0  0  0  0  0  0  0
   -0.0310   53.1770  -20.7990 C   0  0  0  0  0  0  0  0  0  0  0  0
    0.9860   52.9710  -21.9270 C   0  0  2  0  0  0  0  0  0  0  0  0
    1.7060   54.5260  -22.3870 Cl  0  0  0  0  0  0  0  0  0  0  0  0
    0.3520   52.3150  -23.0910 C   0  0  0  0  0  0  0  0  0  0  0  0
    0.9980   52.2830  -24.3090 C   0  0  0  0  0  0  0  0  0  0  0  0
    0.4840   51.6960  -25.4440 C   0  0  0  0  0  0  0  0  0  0  0  0
   -0.7550   51.0990  -25.3700 C   0  0  0  0  0  0  0  0  0  0  0  0
   -1.4170   51.1200  -24.1610 C   0  0  0  0  0  0  0  0  0  0  0  0
   -0.8950   51.7110  -23.0300 C   0  0  0  0  0  0  0  0  0  0  0  0
   -2.4371   49.7455  -18.8512 H   0  0  0  0  0  0  0  0  0  0  0  0
    0.9354   50.1903  -16.0158 H   0  0  0  0  0  0  0  0  0  0  0  0
    2.4880   52.3348  -17.1891 H   0  0  0  0  0  0  0  0  0  0  0  0
   -1.8818   51.0186  -19.9089 H   0  0  0  0  0  0  0  0  0  0  0  0
   -0.6206   49.7313  -14.4555 H   0  0  0  0  0  0  0  0  0  0  0  0
   -1.3058   48.1407  -14.1649 H   0  0  0  0  0  0  0  0  0  0  0  0
   -3.4744   48.8905  -14.8423 H   0  0  0  0  0  0  0  0  0  0  0  0
   -2.8130   50.4562  -15.3090 H   0  0  0  0  0  0  0  0  0  0  0  0
   -2.3354   49.6327  -12.5538 H   0  0  0  0  0  0  0  0  0  0  0  0
   -3.9898   50.0095  -12.9671 H   0  0  0  0  0  0  0  0  0  0  0  0
   -1.5340   52.7877  -11.8754 H   0  0  0  0  0  0  0  0  0  0  0  0
   -0.9620   51.1770  -11.9779 H   0  0  0  0  0  0  0  0  0  0  0  0
   -2.6441   52.0040   -9.9896 H   0  0  0  0  0  0  0  0  0  0  0  0
   -2.6729   50.3882  -10.5013 H   0  0  0  0  0  0  0  0  0  0  0  0
   -4.6879   50.7421  -11.6631 H   0  0  0  0  0  0  0  0  0  0  0  0
   -4.7967   52.2533  -10.8653 H   0  0  0  0  0  0  0  0  0  0  0  0
   -4.6267   52.2453  -13.5298 H   0  0  0  0  0  0  0  0  0  0  0  0
   -3.6975   53.4121  -12.7538 H   0  0  0  0  0  0  0  0  0  0  0  0
   -4.7269   48.8902  -18.8797 H   0  0  0  0  0  0  0  0  0  0  0  0
   -3.7815   50.0250  -19.8133 H   0  0  0  0  0  0  0  0  0  0  0  0
   -4.2861   50.4346  -18.1914 H   0  0  0  0  0  0  0  0  0  0  0  0
   -0.9584   52.7201  -21.0748 H   0  0  0  0  0  0  0  0  0  0  0  0
   -0.1652   54.2273  -20.6451 H   0  0  0  0  0  0  0  0  0  0  0  0
    1.7649   52.3274  -21.5749 H   0  0  0  0  0  0  0  0  0  0  0  0
    1.9269   52.7278  -24.3743 H   0  0  0  0  0  0  0  0  0  0  0  0
    1.0147   51.7033  -26.3290 H   0  0  0  0  0  0  0  0  0  0  0  0
   -1.1763   50.6482  -26.1972 H   0  0  0  0  0  0  0  0  0  0  0  0
   -2.3452   50.6732  -24.0997 H   0  0  0  0  0  0  0  0  0  0  0  0
   -1.4274   51.7040  -22.1460 H   0  0  0  0  0  0  0  0  0  0  0  0
  1  2  1  0  0  0  0
  1 31  1  6  0  0  0
  2  3  2  0  0  0  0
  2 11  1  0  0  0  0
  3 32  1  0  0  0  0
  4  3  1  0  0  0  0
  5  4  2  0  0  0  0
  5 33  1  0  0  0  0
  6  5  1  0  0  0  0
  7  6  1  0  0  0  0
  8  6  1  0  0  0  0
  8  9  1  0  0  0  0
  9  4  1  0  0  0  0
 10  9  2  0  0  0  0
 10  1  1  0  0  0  0
 10 34  1  0  0  0  0
 11 12  1  0  0  0  0
 12 13  1  0  0  0  0
 12 35  1  0  0  0  0
 12 36  1  0  0  0  0
 13 14  1  0  0  0  0
 13 37  1  0  0  0  0
 13 38  1  0  0  0  0
 14 15  1  0  0  0  0
 14 39  1  0  0  0  0
 14 40  1  0  0  0  0
 15 19  1  0  0  0  0
 15 16  1  0  0  0  0
 16 17  1  0  0  0  0
 16 41  1  0  0  0  0
 16 42  1  0  0  0  0
 17 43  1  0  0  0  0
 17 44  1  0  0  0  0
 18 17  1  0  0  0  0
 18 45  1  0  0  0  0
 18 46  1  0  0  0  0
 19 18  1  0  0  0  0
 19 47  1  0  0  0  0
 19 48  1  0  0  0  0
 20  1  1  0  0  0  0
 21 20  1  0  0  0  0
 21 49  1  0  0  0  0
 21 50  1  0  0  0  0
 21 51  1  0  0  0  0
 22  8  1  0  0  0  0
 22 52  1  0  0  0  0
 22 53  1  0  0  0  0
 23 22  1  0  0  0  0
 23 54  1  1  0  0  0
 24 23  1  0  0  0  0
 25 30  1  0  0  0  0
 25 23  1  0  0  0  0
 26 25  2  0  0  0  0
 26 55  1  0  0  0  0
 27 28  2  0  0  0  0
 27 26  1  0  0  0  0
 27 56  1  0  0  0  0
 28 29  1  0  0  0  0
 28 57  1  0  0  0  0
 29 30  2  0  0  0  0
 29 58  1  0  0  0  0
 30 59  1  0  0  0  0
M  END
>  <REMARK>
 VINA RESULT:      -6.8      2.694      9.027
  9 active torsions:
  status: ('A' for Active; 'I' for Inactive)
    1  A    between atoms: O_2  and  C_3 
    2  A    between atoms: C_4  and  O_5 
    3  A    between atoms: O_5  and  C_6 
    4  A    between atoms: C_6  and  C_7 
    5  A    between atoms: C_7  and  C_8 
    6  A    between atoms: C_8  and  N_9 
    7  A    between atoms: N_19  and  C_20 
    8  A    between atoms: C_20  and  C_21 
    9  A    between atoms: C_21  and  C_23 

>  <TORSDO>
F 9

$$$$
resistance_project/docking/8faf60323ce63d5a/P00533_WT/docked/molecule_0003_out.pdbqt
 OpenBabel09142609533D

 59 62  0  0  1  0  0  0  0  0999 V2000
    1.1420   51.4580  -16.1820 C   0  0  1  0  0  0  0  0  0  0  0  0
    0.5330   50.8600  -15.1020 C   0  0  0  0  0  0  0  0  0  0  0  0
   -0.3140   49.7690  -15.2180 C   0  0  0  0  0  0  0  0  0  0  0  0
   -0.5480   49.2730  -16.4780 C   0  0  0  0  0  0  0  0  0  0  0  0
   -1.3050   48.2360  -16.9730 C   0  0  0  0  0  0  0  0  0  0  0  0
   -1.1820   48.1780  -18.3100 N   0  0  0  0  0  0  0  0  0  0  0  0
   -1.6330   47.5090  -18.9330 H   0  0  0  0  0  0  0  0  0  0  0  0
   -0.3660   49.1540  -18.6600 N   0  0  0  0  0  0  0  0  0  0  0  0
    0.0480   49.8500  -17.5840 C   0  0  0  0  0  0  0  0  0  0  0  0
    0.9020   50.9500  -17.4630 C   0  0  0  0  0  0  0  0  0  0  0  0
    0.7420   51.3310  -13.8040 O   0  0  0  0  0  0  0  0  0  0  0  0
   -0.1740   52.2380  -13.2130 C   0  0  0  0  0  0  0  0  0  0  0  0
   -0.4600   51.8490  -11.7720 C   0  0  0  0  0  0  0  0  0  0  0  0
   -1.7680   51.1320  -11.6450 C   0  0  0  0  0  0  0  0  0  0  0  0
   -2.6500   51.5280  -12.7550 N   0  0  0  0  0  0  0  0  0  0  0  0
   -3.7290   52.3020  -12.1220 C   0  0  0  0  0  0  0  0  0  0  0  0
   -4.4190   51.3110  -11.2030 C   0  0  0  0  0  0  0  0  0  0  0  0
   -4.0850   49.9770  -11.8770 C   0  0  0  0  0  0  0  0  0  0  0  0
   -3.4280   50.3740  -13.2030 C   0  0  0  0  0  0  0  0  0  0  0  0
    1.9790   52.5490  -15.9840 O   0  0  0  0  0  0  0  0  0  0  0  0
    3.1760   52.6860  -16.7340 C   0  0  0  0  0  0  0  0  0  0  0  0
   -0.0050   49.3870  -20.0590 C   0  0  0  0  0  0  0  0  0  0  0  0
   -0.9710   50.3810  -20.7120 C   0  0  2  0  0  0  0  0  0  0  0  0
   -1.8600   49.5910  -22.0280 Cl  0  0  0  0  0  0  0  0  0  0  0  0
   -0.2440   51.5720  -21.2030 C   0  0  0  0  0  0  0  0  0  0  0  0
    0.0630   51.6970  -22.5420 C   0  0  0  0  0  0  0  0  0  0  0  0
    0.7350   52.7680  -23.0870 C   0  0  0  0  0  0  0  0  0  0  0  0
    1.1310   53.7890  -22.2500 C   0  0  0  0  0  0  0  0  0  0  0  0
    0.8330   53.6830  -20.9080 C   0  0  0  0  0  0  0  0  0  0  0  0
    0.1600   52.6060  -20.3720 C   0  0  0  0  0  0  0  0  0  0  0  0
    1.7494   52.1061  -16.7785 H   0  0  0  0  0  0  0  0  0  0  0  0
   -0.7537   49.3438  -14.3868 H   0  0  0  0  0  0  0  0  0  0  0  0
   -1.8814   47.5978  -16.4025 H   0  0  0  0  0  0  0  0  0  0  0  0
    1.3424   51.3747  -18.2941 H   0  0  0  0  0  0  0  0  0  0  0  0
   -1.0885   52.2257  -13.7684 H   0  0  0  0  0  0  0  0  0  0  0  0
    0.2549   53.2182  -13.2264 H   0  0  0  0  0  0  0  0  0  0  0  0
   -0.4897   52.7347  -11.1724 H   0  0  0  0  0  0  0  0  0  0  0  0
    0.3164   51.1907  -11.4422 H   0  0  0  0  0  0  0  0  0  0  0  0
   -1.6014   50.0756  -11.6803 H   0  0  0  0  0  0  0  0  0  0  0  0
   -2.2278   51.3877  -10.7133 H   0  0  0  0  0  0  0  0  0  0  0  0
   -4.4108   52.6727  -12.8586 H   0  0  0  0  0  0  0  0  0  0  0  0
   -3.3609   53.1573  -11.5950 H   0  0  0  0  0  0  0  0  0  0  0  0
   -5.4754   51.4784  -11.1718 H   0  0  0  0  0  0  0  0  0  0  0  0
   -4.1033   51.3728  -10.1825 H   0  0  0  0  0  0  0  0  0  0  0  0
   -3.4084   49.4075  -11.2748 H   0  0  0  0  0  0  0  0  0  0  0  0
   -4.9502   49.3634  -12.0181 H   0  0  0  0  0  0  0  0  0  0  0  0
   -2.8018   49.5956  -13.5863 H   0  0  0  0  0  0  0  0  0  0  0  0
   -4.1077   50.5687  -14.0061 H   0  0  0  0  0  0  0  0  0  0  0  0
    3.6801   53.5830  -16.4405 H   0  0  0  0  0  0  0  0  0  0  0  0
    2.9401   52.7342  -17.7766 H   0  0  0  0  0  0  0  0  0  0  0  0
    3.8103   51.8441  -16.5504 H   0  0  0  0  0  0  0  0  0  0  0  0
    0.9883   49.7822  -20.1038 H   0  0  0  0  0  0  0  0  0  0  0  0
   -0.0604   48.4579  -20.5868 H   0  0  0  0  0  0  0  0  0  0  0  0
   -1.6757   50.7091  -19.9767 H   0  0  0  0  0  0  0  0  0  0  0  0
   -0.2302   50.9380  -23.1768 H   0  0  0  0  0  0  0  0  0  0  0  0
    0.9374   52.8054  -24.0983 H   0  0  0  0  0  0  0  0  0  0  0  0
    1.6366   54.6101  -22.6176 H   0  0  0  0  0  0  0  0  0  0  0  0
    1.1271   54.4443  -20.2763 H   0  0  0  0  0  0  0  0  0  0  0  0
   -0.0415   52.5695  -19.3605 H   0  0  0  0  0  0  0  0  0  0  0  0
  1 20  1  0  0  0  0
  1  2  1  0  0  0  0
  1 31  1  1  0  0  0
  2 11  1  0  0  0  0
  3  2  2  0  0  0  0
  3 32  1  0  0  0  0
  4  3  1  0  0  0  0
  5  4  2  0  0  0  0
  5 33  1  0  0  0  0
  6  5  1  0  0  0  0
  7  6  1  0  0  0  0
  8  6  1  0  0  0  0
  8  9  1  0  0  0  0
  9 10  2  0  0  0  0
  9  4  1  0  0  0  0
 10  1  1  0  0  0  0
 10 34  1  0  0  0  0
 11 12  1  0  0  0  0
 12 13  1  0  0  0  0
 12 35  1  0  0  0  0
 12 36  1  0  0  0  0
 13 14  1  0  0  0  0
 13 37  1  0  0  0  0
 13 38  1  0  0  0  0
 14 39  1  0  0  0  0
 14 40  1  0  0  0  0
 15 16  1  0  0  0  0
 15 14  1  0  0  0  0
 16 17  1  0  0  0  0
 16 41  1  0  0  0  0
 16 42  1  0  0  0  0
 17 43  1  0  0  0  0
 17 44  1  0  0  0  0
 18 17  1  0  0  0  0
 18 45  1  0  0  0  0
 18 46  1  0  0  0  0
 19 15  1  0  0  0  0
 19 18  1  0  0  0  0
 19 47  1  0  0  0  0
 19 48  1  0  0  0  0
 21 20  1  0  0  0  0
 21 49  1  0  0  0  0
 21 50  1  0  0  0  0
 21 51  1  0  0  0  0
 22  8  1  0  0  0  0
 22 52  1  0  0  0  0
 22 53  1  0  0  0  0
 23 22  1  0  0  0  0
 23 54  1  1  0  0  0
 24 23  1  0  0  0  0
 25 23  1  0  0  0  0
 25 30  2  0  0  0  0
 26 25  1  0  0  0  0
 26 55  1  0  0  0  0
 27 26  2  0  0  0  0
 27 28  1  0  0  0  0
 27 56  1  0  0  0  0
 28 29  2  0  0  0  0
 28 57  1  0  0  0  0
 29 30  1  0  0  0  0
 29 58  1  0  0  0  0
 30 59  1  0  0  0  0
M  END
>  <REMARK>
 VINA RESULT:      -6.7      3.570      9.316
  9 active torsions:
  status: ('A' for Active; 'I' for Inactive)
    1  A    between atoms: O_2  and  C_3 
    2  A    between atoms: C_4  and  O_5 
    3  A    between atoms: O_5  and  C_6 
    4  A    between atoms: C_6  and  C_7 
    5  A    between atoms: C_7  and  C_8 
    6  A    between atoms: C_8  and  N_9 
    7  A    between atoms: N_19  and  C_20 
    8  A    between atoms: C_20  and  C_21 
    9  A    between atoms: C_21  and  C_23 

>  <TORSDO>
F 9

$$$$
resistance_project/docking/8faf60323ce63d5a/P00533_WT/docked/molecule_0003_out.pdbqt
 OpenBabel09142609533D

 59 62  0  0  1  0  0  0  0  0999 V2000
    1.3160   51.6580  -16.8520 C   0  0  2  0  0  0  0  0  0  0  0  0
    0.9290   50.4410  -16.3380 C   0  0  0  0  0  0  0  0  0  0  0  0
    0.0680   49.5790  -16.9980 C   0  0  0  0  0  0  0  0  0  0  0  0
   -0.4150   49.9700  -18.2230 C   0  0  0  0  0  0  0  0  0  0  0  0
   -1.2620   49.4010  -19.1450 C   0  0  0  0  0  0  0  0  0  0  0  0
   -1.4080   50.2200  -20.2000 N   0  0  0  0  0  0  0  0  0  0  0  0
   -1.9780   50.0490  -21.0270 H   0  0  0  0  0  0  0  0  0  0  0  0
   -0.6710   51.2870  -19.9570 N   0  0  0  0  0  0  0  0  0  0  0  0
   -0.0460   51.1860  -18.7690 C   0  0  0  0  0  0  0  0  0  0  0  0
    0.8230   52.0530  -18.1010 C   0  0  0  0  0  0  0  0  0  0  0  0
    1.3950   50.0030  -15.0970 O   0  0  0  0  0  0  0  0  0  0  0  0
    0.5310   49.9790  -13.9730 C   0  0  0  0  0  0  0  0  0  0  0  0
    0.1210   51.3900  -13.5810 C   0  0  0  0  0  0  0  0  0  0  0  0
   -1.3500   51.4810  -13.3170 C   0  0  0  0  0  0  0  0  0  0  0  0
   -1.6650   50.7770  -12.0640 N   0  0  0  0  0  0  0  0  0  0  0  0
   -3.1080   50.4990  -12.1400 C   0  0  0  0  0  0  0  0  0  0  0  0
   -3.7570   51.8700  -12.1740 C   0  0  0  0  0  0  0  0  0  0  0  0
   -2.6980   52.7330  -11.4820 C   0  0  0  0  0  0  0  0  0  0  0  0
   -1.6720   51.7260  -10.9520 C   0  0  0  0  0  0  0  0  0  0  0  0
    2.1830   52.4670  -16.1300 O   0  0  0  0  0  0  0  0  0  0  0  0
    3.5140   52.6790  -16.5770 C   0  0  0  0  0  0  0  0  0  0  0  0
   -0.5930   52.3970  -20.9080 C   0  0  0  0  0  0  0  0  0  0  0  0
    0.6930   52.3140  -21.7370 C   0  0  2  0  0  0  0  0  0  0  0  0
    1.6340   53.8060  -21.5510 Cl  0  0  0  0  0  0  0  0  0  0  0  0
    0.3840   52.0550  -23.1600 C   0  0  0  0  0  0  0  0  0  0  0  0
   -0.8080   51.4600  -23.5160 C   0  0  0  0  0  0  0  0  0  0  0  0
   -1.1800   51.1820  -24.8130 C   0  0  0  0  0  0  0  0  0  0  0  0
   -0.3110   51.5150  -25.8290 C   0  0  0  0  0  0  0  0  0  0  0  0
    0.8860   52.1110  -25.4940 C   0  0  0  0  0  0  0  0  0  0  0  0
    1.2490   52.3850  -24.1930 C   0  0  0  0  0  0  0  0  0  0  0  0
    1.7650   52.6277  -16.9066 H   0  0  0  0  0  0  0  0  0  0  0  0
   -0.2014   48.6733  -16.5830 H   0  0  0  0  0  0  0  0  0  0  0  0
   -1.7180   48.4810  -19.0418 H   0  0  0  0  0  0  0  0  0  0  0  0
    1.0933   52.9581  -18.5165 H   0  0  0  0  0  0  0  0  0  0  0  0
    1.0373   49.5189  -13.1503 H   0  0  0  0  0  0  0  0  0  0  0  0
   -0.3475   49.4228  -14.2257 H   0  0  0  0  0  0  0  0  0  0  0  0
    0.3734   52.0591  -14.3769 H   0  0  0  0  0  0  0  0  0  0  0  0
    0.6400   51.6530  -12.6830 H   0  0  0  0  0  0  0  0  0  0  0  0
   -1.8865   51.0293  -14.1251 H   0  0  0  0  0  0  0  0  0  0  0  0
   -1.6353   52.5087  -13.2315 H   0  0  0  0  0  0  0  0  0  0  0  0
   -3.3409   49.9481  -13.0272 H   0  0  0  0  0  0  0  0  0  0  0  0
   -3.4522   49.9059  -11.3186 H   0  0  0  0  0  0  0  0  0  0  0  0
   -4.6804   51.8778  -11.6334 H   0  0  0  0  0  0  0  0  0  0  0  0
   -4.0143   52.2041  -13.1574 H   0  0  0  0  0  0  0  0  0  0  0  0
   -3.1307   53.2912  -10.6782 H   0  0  0  0  0  0  0  0  0  0  0  0
   -2.2605   53.4505  -12.1443 H   0  0  0  0  0  0  0  0  0  0  0  0
   -0.7119   52.1749  -10.8048 H   0  0  0  0  0  0  0  0  0  0  0  0
   -1.9013   51.3040   -9.9958 H   0  0  0  0  0  0  0  0  0  0  0  0
    4.0214   53.3260  -15.8923 H   0  0  0  0  0  0  0  0  0  0  0  0
    3.4969   53.1295  -17.5474 H   0  0  0  0  0  0  0  0  0  0  0  0
    4.0267   51.7412  -16.6281 H   0  0  0  0  0  0  0  0  0  0  0  0
   -1.4369   52.3563  -21.5646 H   0  0  0  0  0  0  0  0  0  0  0  0
   -0.5901   53.3170  -20.3617 H   0  0  0  0  0  0  0  0  0  0  0  0
    1.2812   51.4956  -21.3777 H   0  0  0  0  0  0  0  0  0  0  0  0
   -1.4645   51.2063  -22.7612 H   0  0  0  0  0  0  0  0  0  0  0  0
   -2.0873   50.7353  -25.0185 H   0  0  0  0  0  0  0  0  0  0  0  0
   -0.5499   51.3233  -26.8145 H   0  0  0  0  0  0  0  0  0  0  0  0
    1.5398   52.3634  -26.2515 H   0  0  0  0  0  0  0  0  0  0  0  0
    2.1566   52.8319  -23.9891 H   0  0  0  0  0  0  0  0  0  0  0  0
  1  2  1  0  0  0  0
  1 20  1  0  0  0  0
  1 31  1  1  0  0  0
  2 11  1  0  0  0  0
  3  2  2  0  0  0  0
  3 32  1  0  0  0  0
  4  3  1  0  0  0  0
  5  4  2  0  0  0  0
  5 33  1  0  0  0  0
  6  8  1  0  0  0  0
  6  5  1  0  0  0  0
  7  6  1  0  0  0  0
  8  9  1  0  0  0  0
  9  4  1  0  0  0  0
  9 10  2  0  0  0  0
 10  1  1  0  0  0  0
 10 34  1  0  0  0  0
 11 12  1  0  0  0  0
 12 13  1  0  0  0  0
 12 35  1  0  0  0  0
 12 36  1  0  0  0  0
 13 14  1  0  0  0  0
 13 37  1  0  0  0  0
 13 38  1  0  0  0  0
 14 15  1  0  0  0  0
 14 39  1  0  0  0  0
 14 40  1  0  0  0  0
 15 19  1  0  0  0  0
 16 15  1  0  0  0  0
 16 41  1  0  0  0  0
 16 42  1  0  0  0  0
 17 16  1  0  0  0  0
 17 18  1  0  0  0  0
 17 43  1  0  0  0  0
 17 44  1  0  0  0  0
 18 19  1  0  0  0  0
 18 45  1  0  0  0  0
 18 46  1  0  0  0  0
 19 47  1  0  0  0  0
 19 48  1  0  0  0  0
 21 20  1  0  0  0  0
 21 49  1  0  0  0  0
 21 50  1  0  0  0  0
 21 51  1  0  0  0  0
 22  8  1  0  0  0  0
 22 52  1  0  0  0  0
 22 53  1  0  0  0  0
 23 24  1  0  0  0  0
 23 22  1  0  0  0  0
 23 54  1  1  0  0  0
 25 23  1  0  0  0  0
 26 25  1  0  0  0  0
 26 55  1  0  0  0  0
 27 26  2  0  0  0  0
 27 56  1  0  0  0  0
 28 29  2  0  0  0  0
 28 27  1  0  0  0  0
 28 57  1  0  0  0  0
 29 30  1  0  0  0  0
 29 58  1  0  0  0  0
 30 25  2  0  0  0  0
 30 59  1  0  0  0  0
M  END
>  <REMARK>
 VINA RESULT:      -6.6      3.004      9.506
  9 active torsions:
  status: ('A' for Active; 'I' for Inactive)
    1  A    between atoms: O_2  and  C_3 
    2  A    between atoms: C_4  and  O_5 
    3  A    between atoms: O_5  and  C_6 
    4  A    between atoms: C_6  and  C_7 
    5  A    between atoms: C_7  and  C_8 
    6  A    between atoms: C_8  and  N_9 
    7  A    between atoms: N_19  and  C_20 
    8  A    between atoms: C_20  and  C_21 
    9  A    between atoms: C_21  and  C_23 

>  <TORSDO>
F 9

$$$$
resistance_project/docking/8faf60323ce63d5a/P00533_WT/docked/molecule_0003_out.pdbqt
 OpenBabel09142609533D

 59 62  0  0  1  0  0  0  0  0999 V2000
   -3.5750   50.8090  -21.4980 C   0  0  2  0  0  0  0  0  0  0  0  0
   -3.9320   51.2960  -22.7340 C   0  0  0  0  0  0  0  0  0  0  0  0
   -3.0200   51.8290  -23.6310 C   0  0  0  0  0  0  0  0  0  0  0  0
   -1.6990   51.8670  -23.2550 C   0  0  0  0  0  0  0  0  0  0  0  0
   -0.5440   52.3080  -23.8570 C   0  0  0  0  0  0  0  0  0  0  0  0
    0.5030   52.1100  -23.0390 N   0  0  0  0  0  0  0  0  0  0  0  0
    1.4770   52.3430  -23.2310 H   0  0  0  0  0  0  0  0  0  0  0  0
    0.0270   51.5550  -21.9410 N   0  0  0  0  0  0  0  0  0  0  0  0
   -1.3060   51.3850  -22.0200 C   0  0  0  0  0  0  0  0  0  0  0  0
   -2.2280   50.8480  -21.1180 C   0  0  0  0  0  0  0  0  0  0  0  0
   -5.2630   51.2780  -23.1580 O   0  0  0  0  0  0  0  0  0  0  0  0
   -5.6530   50.4840  -24.2660 C   0  0  0  0  0  0  0  0  0  0  0  0
   -5.7970   49.0270  -23.8570 C   0  0  0  0  0  0  0  0  0  0  0  0
   -4.8920   48.1400  -24.6560 C   0  0  0  0  0  0  0  0  0  0  0  0
   -3.6000   48.0120  -23.9640 N   0  0  0  0  0  0  0  0  0  0  0  0
   -2.6040   48.5020  -24.9300 C   0  0  0  0  0  0  0  0  0  0  0  0
   -2.6980   47.5340  -26.0950 C   0  0  0  0  0  0  0  0  0  0  0  0
   -3.2460   46.2770  -25.4130 C   0  0  0  0  0  0  0  0  0  0  0  0
   -3.2030   46.6060  -23.9170 C   0  0  0  0  0  0  0  0  0  0  0  0
   -4.5470   50.2890  -20.6540 O   0  0  0  0  0  0  0  0  0  0  0  0
   -4.1870   49.7010  -19.4120 C   0  0  0  0  0  0  0  0  0  0  0  0
    0.9010   51.1970  -20.8220 C   0  0  0  0  0  0  0  0  0  0  0  0
    0.8790   52.2860  -19.7440 C   0  0  2  0  0  0  0  0  0  0  0  0
    2.2270   53.4120  -19.9900 Cl  0  0  0  0  0  0  0  0  0  0  0  0
    0.9270   51.6870  -18.3930 C   0  0  0  0  0  0  0  0  0  0  0  0
    1.6690   52.2810  -17.3940 C   0  0  0  0  0  0  0  0  0  0  0  0
    1.7720   51.7950  -16.1100 C   0  0  0  0  0  0  0  0  0  0  0  0
    1.0920   50.6400  -15.7900 C   0  0  0  0  0  0  0  0  0  0  0  0
    0.3430   50.0310  -16.7740 C   0  0  0  0  0  0  0  0  0  0  0  0
    0.2480   50.5250  -18.0580 C   0  0  0  0  0  0  0  0  0  0  0  0
   -3.7007   50.4296  -20.5054 H   0  0  0  0  0  0  0  0  0  0  0  0
   -3.3230   52.1855  -24.5508 H   0  0  0  0  0  0  0  0  0  0  0  0
   -0.4896   52.7287  -24.7978 H   0  0  0  0  0  0  0  0  0  0  0  0
   -1.9250   50.4905  -20.1985 H   0  0  0  0  0  0  0  0  0  0  0  0
   -6.5909   50.8385  -24.6397 H   0  0  0  0  0  0  0  0  0  0  0  0
   -4.9009   50.5565  -25.0236 H   0  0  0  0  0  0  0  0  0  0  0  0
   -5.5510   48.9311  -22.8201 H   0  0  0  0  0  0  0  0  0  0  0  0
   -6.8076   48.7259  -24.0383 H   0  0  0  0  0  0  0  0  0  0  0  0
   -5.3392   47.1734  -24.7593 H   0  0  0  0  0  0  0  0  0  0  0  0
   -4.7382   48.5656  -25.6256 H   0  0  0  0  0  0  0  0  0  0  0  0
   -2.8399   49.4971  -25.2448 H   0  0  0  0  0  0  0  0  0  0  0  0
   -1.6192   48.5440  -24.5138 H   0  0  0  0  0  0  0  0  0  0  0  0
   -3.3689   47.8933  -26.8471 H   0  0  0  0  0  0  0  0  0  0  0  0
   -1.7712   47.3805  -26.6072 H   0  0  0  0  0  0  0  0  0  0  0  0
   -2.6315   45.4289  -25.6320 H   0  0  0  0  0  0  0  0  0  0  0  0
   -4.2313   46.0278  -25.7478 H   0  0  0  0  0  0  0  0  0  0  0  0
   -2.2213   46.4825  -23.5098 H   0  0  0  0  0  0  0  0  0  0  0  0
   -3.8129   45.9824  -23.2972 H   0  0  0  0  0  0  0  0  0  0  0  0
   -5.0684   49.3614  -18.9094 H   0  0  0  0  0  0  0  0  0  0  0  0
   -3.6877   50.4271  -18.8050 H   0  0  0  0  0  0  0  0  0  0  0  0
   -3.5337   48.8716  -19.5861 H   0  0  0  0  0  0  0  0  0  0  0  0
    1.9018   51.0801  -21.1821 H   0  0  0  0  0  0  0  0  0  0  0  0
    0.5504   50.2820  -20.3922 H   0  0  0  0  0  0  0  0  0  0  0  0
   -0.0375   52.8322  -19.8253 H   0  0  0  0  0  0  0  0  0  0  0  0
    2.1809   53.1471  -17.6240 H   0  0  0  0  0  0  0  0  0  0  0  0
    2.3446   52.2839  -15.4042 H   0  0  0  0  0  0  0  0  0  0  0  0
    1.1421   50.2417  -14.8393 H   0  0  0  0  0  0  0  0  0  0  0  0
   -0.1696   49.1666  -16.5393 H   0  0  0  0  0  0  0  0  0  0  0  0
   -0.3234   50.0343  -18.7635 H   0  0  0  0  0  0  0  0  0  0  0  0
  1 10  1  0  0  0  0
  1 20  1  0  0  0  0
  1 31  1  1  0  0  0
  2  1  1  0  0  0  0
  3  4  1  0  0  0  0
  3  2  2  0  0  0  0
  3 32  1  0  0  0  0
  4  9  1  0  0  0  0
  5  4  2  0  0  0  0
  5  6  1  0  0  0  0
  5 33  1  0  0  0  0
  6  8  1  0  0  0  0
  7  6  1  0  0  0  0
  8 22  1  0  0  0  0
  9  8  1  0  0  0  0
  9 10  2  0  0  0  0
 10 34  1  0  0  0  0
 11  2  1  0  0  0  0
 12 13  1  0  0  0  0
 12 11  1  0  0  0  0
 12 35  1  0  0  0  0
 12 36  1  0  0  0  0
 13 37  1  0  0  0  0
 13 38  1  0  0  0  0
 14 15  1  0  0  0  0
 14 13  1  0  0  0  0
 14 39  1  0  0  0  0
 14 40  1  0  0  0  0
 15 19  1  0  0  0  0
 16 15  1  0  0  0  0
 16 41  1  0  0  0  0
 16 42  1  0  0  0  0
 17 18  1  0  0  0  0
 17 16  1  0  0  0  0
 17 43  1  0  0  0  0
 17 44  1  0  0  0  0
 18 19  1  0  0  0  0
 18 45  1  0  0  0  0
 18 46  1  0  0  0  0
 19 47  1  0  0  0  0
 19 48  1  0  0  0  0
 20 21  1  0  0  0  0
 21 49  1  0  0  0  0
 21 50  1  0  0  0  0
 21 51  1  0  0  0  0
 22 23  1  0  0  0  0
 22 52  1  0  0  0  0
 22 53  1  0  0  0  0
 23 25  1  0  0  0  0
 23 54  1  6  0  0  0
 24 23  1  0  0  0  0
 25 30  2  0  0  0  0
 25 26  1  0  0  0  0
 26 27  2  0  0  0  0
 26 55  1  0  0  0  0
 27 28  1  0  0  0  0
 27 56  1  0  0  0  0
 28 57  1  0  0  0  0
 29 28  2  0  0  0  0
 29 58  1  0  0  0  0
 30 29  1  0  0  0  0
 30 59  1  0  0  0  0
M  END
>  <REMARK>
 VINA RESULT:      -6.5      3.150      4.729
  9 active torsions:
  status: ('A' for Active; 'I' for Inactive)
    1  A    between atoms: O_2  and  C_3 
    2  A    between atoms: C_4  and  O_5 
    3  A    between atoms: O_5  and  C_6 
    4  A    between atoms: C_6  and  C_7 
    5  A    between atoms: C_7  and  C_8 
    6  A    between atoms: C_8  and  N_9 
    7  A    between atoms: N_19  and  C_20 
    8  A    between atoms: C_20  and  C_21 
    9  A    between atoms: C_21  and  C_23 

>  <TORSDO>
F 9

$$$$
resistance_project/docking/8faf60323ce63d5a/P00533_WT/docked/molecule_0003_out.pdbqt
 OpenBabel09142609533D

 59 62  0  0  1  0  0  0  0  0999 V2000
   -0.1770   49.7510  -18.2660 C   0  0  2  0  0  0  0  0  0  0  0  0
    0.4690   50.6570  -17.4550 C   0  0  0  0  0  0  0  0  0  0  0  0
    1.0210   51.8370  -17.9250 C   0  0  0  0  0  0  0  0  0  0  0  0
    0.9130   52.1030  -19.2690 C   0  0  0  0  0  0  0  0  0  0  0  0
    1.3220   53.1390  -20.0760 C   0  0  0  0  0  0  0  0  0  0  0  0
    0.9540   52.9020  -21.3460 N   0  0  0  0  0  0  0  0  0  0  0  0
    1.1280   53.5030  -22.1520 H   0  0  0  0  0  0  0  0  0  0  0  0
    0.3220   51.7440  -21.3500 N   0  0  0  0  0  0  0  0  0  0  0  0
    0.2700   51.2160  -20.1130 C   0  0  0  0  0  0  0  0  0  0  0  0
   -0.2870   50.0260  -19.6340 C   0  0  0  0  0  0  0  0  0  0  0  0
    0.6040   50.4270  -16.0840 O   0  0  0  0  0  0  0  0  0  0  0  0
   -0.1800   51.1550  -15.1530 C   0  0  0  0  0  0  0  0  0  0  0  0
    0.7020   51.7930  -14.0930 C   0  0  0  0  0  0  0  0  0  0  0  0
    1.9940   51.0530  -13.9340 C   0  0  0  0  0  0  0  0  0  0  0  0
    2.0300   50.4160  -12.6080 N   0  0  0  0  0  0  0  0  0  0  0  0
    3.4610   50.2210  -12.3220 C   0  0  0  0  0  0  0  0  0  0  0  0
    3.9360   49.2650  -13.4000 C   0  0  0  0  0  0  0  0  0  0  0  0
    2.6380   48.5400  -13.7680 C   0  0  0  0  0  0  0  0  0  0  0  0
    1.6260   49.0160  -12.7200 C   0  0  0  0  0  0  0  0  0  0  0  0
   -0.7050   48.5890  -17.7190 O   0  0  0  0  0  0  0  0  0  0  0  0
   -1.8200   47.9490  -18.3230 C   0  0  0  0  0  0  0  0  0  0  0  0
   -0.2230   51.1710  -22.5820 C   0  0  0  0  0  0  0  0  0  0  0  0
   -0.8310   52.2650  -23.4670 C   0  0  2  0  0  0  0  0  0  0  0  0
   -2.5400   51.9100  -23.7850 Cl  0  0  0  0  0  0  0  0  0  0  0  0
   -0.0730   52.3980  -24.7300 C   0  0  0  0  0  0  0  0  0  0  0  0
    0.9670   51.5370  -25.0110 C   0  0  0  0  0  0  0  0  0  0  0  0
    1.7270   51.5870  -26.1590 C   0  0  0  0  0  0  0  0  0  0  0  0
    1.4370   52.5560  -27.0950 C   0  0  0  0  0  0  0  0  0  0  0  0
    0.4000   53.4260  -26.8330 C   0  0  0  0  0  0  0  0  0  0  0  0
   -0.3540   53.3690  -25.6800 C   0  0  0  0  0  0  0  0  0  0  0  0
   -0.6988   48.8601  -18.5468 H   0  0  0  0  0  0  0  0  0  0  0  0
    1.4973   52.4942  -17.2876 H   0  0  0  0  0  0  0  0  0  0  0  0
    1.8353   53.9743  -19.7537 H   0  0  0  0  0  0  0  0  0  0  0  0
   -0.7653   49.3696  -20.2707 H   0  0  0  0  0  0  0  0  0  0  0  0
   -0.8723   50.4899  -14.6805 H   0  0  0  0  0  0  0  0  0  0  0  0
   -0.7054   51.9275  -15.6746 H   0  0  0  0  0  0  0  0  0  0  0  0
    0.1812   51.7875  -13.1583 H   0  0  0  0  0  0  0  0  0  0  0  0
    0.9245   52.7936  -14.4000 H   0  0  0  0  0  0  0  0  0  0  0  0
    2.8114   51.7376  -14.0239 H   0  0  0  0  0  0  0  0  0  0  0  0
    2.0736   50.3037  -14.6937 H   0  0  0  0  0  0  0  0  0  0  0  0
    3.9886   51.1500  -12.3809 H   0  0  0  0  0  0  0  0  0  0  0  0
    3.6312   49.8406  -11.3365 H   0  0  0  0  0  0  0  0  0  0  0  0
    4.3391   49.7927  -14.2390 H   0  0  0  0  0  0  0  0  0  0  0  0
    4.7231   48.6123  -13.0849 H   0  0  0  0  0  0  0  0  0  0  0  0
    2.7683   47.4793  -13.7143 H   0  0  0  0  0  0  0  0  0  0  0  0
    2.3210   48.7527  -14.7676 H   0  0  0  0  0  0  0  0  0  0  0  0
    1.7369   48.4937  -11.7927 H   0  0  0  0  0  0  0  0  0  0  0  0
    0.5991   48.8588  -12.9761 H   0  0  0  0  0  0  0  0  0  0  0  0
   -2.0783   47.0763  -17.7603 H   0  0  0  0  0  0  0  0  0  0  0  0
   -1.5699   47.6667  -19.3243 H   0  0  0  0  0  0  0  0  0  0  0  0
   -2.6518   48.6219  -18.3394 H   0  0  0  0  0  0  0  0  0  0  0  0
    0.5624   50.6813  -23.1189 H   0  0  0  0  0  0  0  0  0  0  0  0
   -0.9904   50.4709  -22.3252 H   0  0  0  0  0  0  0  0  0  0  0  0
   -0.7696   53.1997  -22.9498 H   0  0  0  0  0  0  0  0  0  0  0  0
    1.1905   50.8076  -24.3160 H   0  0  0  0  0  0  0  0  0  0  0  0
    2.4948   50.9151  -26.3142 H   0  0  0  0  0  0  0  0  0  0  0  0
    1.9815   52.6285  -27.9687 H   0  0  0  0  0  0  0  0  0  0  0  0
    0.1781   54.1527  -27.5314 H   0  0  0  0  0  0  0  0  0  0  0  0
   -1.1204   54.0426  -25.5252 H   0  0  0  0  0  0  0  0  0  0  0  0
  1 20  1  0  0  0  0
  1  2  1  0  0  0  0
  1 31  1  6  0  0  0
  2 11  1  0  0  0  0
  3  2  2  0  0  0  0
  3 32  1  0  0  0  0
  4  3  1  0  0  0  0
  5  4  2  0  0  0  0
  5 33  1  0  0  0  0
  6  5  1  0  0  0  0
  7  6  1  0  0  0  0
  8  6  1  0  0  0  0
  8  9  1  0  0  0  0
  9 10  2  0  0  0  0
  9  4  1  0  0  0  0
 10  1  1  0  0  0  0
 10 34  1  0  0  0  0
 11 12  1  0  0  0  0
 12 13  1  0  0  0  0
 12 35  1  0  0  0  0
 12 36  1  0  0  0  0
 13 14  1  0  0  0  0
 13 37  1  0  0  0  0
 13 38  1  0  0  0  0
 14 15  1  0  0  0  0
 14 39  1  0  0  0  0
 14 40  1  0  0  0  0
 15 16  1  0  0  0  0
 16 41  1  0  0  0  0
 16 42  1  0  0  0  0
 17 16  1  0  0  0  0
 17 43  1  0  0  0  0
 17 44  1  0  0  0  0
 18 17  1  0  0  0  0
 18 19  1  0  0  0  0
 18 45  1  0  0  0  0
 18 46  1  0  0  0  0
 19 15  1  0  0  0  0
 19 47  1  0  0  0  0
 19 48  1  0  0  0  0
 21 20  1  0  0  0  0
 21 49  1  0  0  0  0
 21 50  1  0  0  0  0
 21 51  1  0  0  0  0
 22  8  1  0  0  0  0
 22 52  1  0  0  0  0
 22 53  1  0  0  0  0
 23 22  1  0  0  0  0
 23 54  1  1  0  0  0
 24 23  1  0  0  0  0
 25 23  1  0  0  0  0
 26 25  1  0  0  0  0
 26 55  1  0  0  0  0
 27 26  2  0  0  0  0
 27 56  1  0  0  0  0
 28 29  2  0  0  0  0
 28 27  1  0  0  0  0
 28 57  1  0  0  0  0
 29 30  1  0  0  0  0
 29 58  1  0  0  0  0
 30 25  2  0  0  0  0
 30 59  1  0  0  0  0
M  END
>  <REMARK>
 VINA RESULT:      -6.4      3.218      9.345
  9 active torsions:
  status: ('A' for Active; 'I' for Inactive)
    1  A    between atoms: O_2  and  C_3 
    2  A    between atoms: C_4  and  O_5 
    3  A    between atoms: O_5  and  C_6 
    4  A    between atoms: C_6  and  C_7 
    5  A    between atoms: C_7  and  C_8 
    6  A    between atoms: C_8  and  N_9 
    7  A    between atoms: N_19  and  C_20 
    8  A    between atoms: C_20  and  C_21 
    9  A    between atoms: C_21  and  C_23 

>  <TORSDO>
F 9

$$$$
