resistance_project/docking/8faf60323ce63d5a/P00533_WT/docked/molecule_0002_out.pdbqt
 OpenBabel09142609523D

 67 71  0  0  1  0  0  0  0  0999 V2000
   -2.3280   51.0550  -19.1720 C   0  0  0  0  0  0  0  0  0  0  0  0
   -3.2510   51.1510  -20.1830 C   0  0  0  0  0  0  0  0  0  0  0  0
   -4.3710   50.3540  -20.3040 C   0  0  0  0  0  0  0  0  0  0  0  0
   -4.5810   49.3880  -19.3400 C   0  0  0  0  0  0  0  0  0  0  0  0
   -3.6790   49.2510  -18.3010 C   0  0  0  0  0  0  0  0  0  0  0  0
   -2.5670   50.0690  -18.2130 C   0  0  0  0  0  0  0  0  0  0  0  0
   -5.2160   50.5760  -21.4070 N   0  0  0  0  0  0  0  0  0  0  0  0
   -6.1010   51.0520  -21.2360 H   0  0  0  0  0  0  0  0  0  0  0  0
   -4.9270   50.1860  -22.7430 C   0  0  1  0  0  0  0  0  0  0  0  0
   -5.4450   49.0680  -23.2950 N   0  0  0  0  0  0  0  0  0  0  0  0
   -5.1640   48.7020  -24.5800 C   0  0  0  0  0  0  0  0  0  0  0  0
   -6.0650   48.4800  -22.7360 H   0  0  0  0  0  0  0  0  0  0  0  0
   -4.3140   49.5260  -25.3200 C   0  0  0  0  0  0  0  0  0  0  0  0
   -3.8970   49.1340  -26.9820 Cl  0  0  0  0  0  0  0  0  0  0  0  0
   -3.7830   50.6670  -24.7600 C   0  0  0  0  0  0  0  0  0  0  0  0
   -4.1020   50.9670  -23.4920 N   0  0  0  0  0  0  0  0  0  0  0  0
   -3.7110   51.8110  -23.0730 H   0  0  0  0  0  0  0  0  0  0  0  0
   -2.9000   51.5200  -25.5480 C   0  0  0  0  0  0  0  0  0  0  0  0
   -1.5890   51.8320  -25.2850 C   0  0  0  0  0  0  0  0  0  0  0  0
   -0.7650   51.4510  -24.2460 C   0  0  0  0  0  0  0  0  0  0  0  0
   -1.2020   52.6380  -26.2870 N   0  0  0  0  0  0  0  0  0  0  0  0
    0.5330   51.9420  -24.2580 C   0  0  0  0  0  0  0  0  0  0  0  0
    0.9580   52.7720  -25.2750 C   0  0  0  0  0  0  0  0  0  0  0  0
    0.0720   53.1150  -26.2920 C   0  0  0  0  0  0  0  0  0  0  0  0
   -2.1660   52.8490  -27.1440 N   0  0  0  0  0  0  0  0  0  0  0  0
   -3.2340   52.1700  -26.7190 C   0  0  0  0  0  0  0  0  0  0  0  0
   -2.1120   53.4250  -27.9850 H   0  0  0  0  0  0  0  0  0  0  0  0
   -5.7090   48.5900  -19.4670 O   0  0  0  0  0  0  0  0  0  0  0  0
   -5.5500   47.2540  -19.9640 C   0  0  0  0  0  0  0  0  0  0  0  0
   -1.1770   51.8920  -19.0750 N   0  0  0  0  0  0  0  0  0  0  0  0
   -0.0630   51.6050  -19.9440 C   0  0  0  0  0  0  0  0  0  0  0  0
   -0.0590   50.6190  -20.7190 O   0  0  0  0  0  0  0  0  0  0  0  0
   -1.1440   52.6660  -18.4130 H   0  0  0  0  0  0  0  0  0  0  0  0
    1.0560   52.5530  -19.8510 C   0  0  0  0  0  0  0  0  0  0  0  0
    1.2780   53.4210  -20.8520 C   0  0  0  0  0  0  0  0  0  0  0  0
   -1.6850   49.8510  -17.1160 N   0  0  0  0  0  0  0  0  0  0  0  0
   -1.8990   50.4020  -15.7960 C   0  0  0  0  0  0  0  0  0  0  0  0
   -0.5960   50.9800  -15.2380 C   0  0  0  0  0  0  0  0  0  0  0  0
    0.3750   51.0070  -16.2930 N   0  0  0  0  0  0  0  0  0  0  0  0
    1.5500   51.7800  -16.0220 C   0  0  0  0  0  0  0  0  0  0  0  0
    0.7030   49.6980  -16.8310 C   0  0  0  0  0  0  0  0  0  0  0  0
   -0.5120   49.0120  -17.4030 C   0  0  0  0  0  0  0  0  0  0  0  0
   -3.0963   51.8716  -20.9053 H   0  0  0  0  0  0  0  0  0  0  0  0
   -3.8376   48.5286  -17.5813 H   0  0  0  0  0  0  0  0  0  0  0  0
   -4.7161   47.7309  -24.5446 H   0  0  0  0  0  0  0  0  0  0  0  0
   -1.0990   50.8287  -23.4935 H   0  0  0  0  0  0  0  0  0  0  0  0
    0.6643   52.4840  -23.3448 H   0  0  0  0  0  0  0  0  0  0  0  0
    1.9240   53.1351  -25.2815 H   0  0  0  0  0  0  0  0  0  0  0  0
    0.3837   53.7356  -27.0553 H   0  0  0  0  0  0  0  0  0  0  0  0
   -4.1534   52.1367  -27.1866 H   0  0  0  0  0  0  0  0  0  0  0  0
   -6.5045   46.7719  -20.0028 H   0  0  0  0  0  0  0  0  0  0  0  0
   -4.9001   46.7065  -19.3138 H   0  0  0  0  0  0  0  0  0  0  0  0
   -5.1268   47.2868  -20.9462 H   0  0  0  0  0  0  0  0  0  0  0  0
    1.6685   52.5520  -19.0204 H   0  0  0  0  0  0  0  0  0  0  0  0
    0.6640   53.4200  -21.6815 H   0  0  0  0  0  0  0  0  0  0  0  0
    2.0625   54.0888  -20.7915 H   0  0  0  0  0  0  0  0  0  0  0  0
   -2.2487   49.6288  -15.1442 H   0  0  0  0  0  0  0  0  0  0  0  0
   -2.6247   51.1856  -15.8618 H   0  0  0  0  0  0  0  0  0  0  0  0
   -0.7661   51.9731  -14.8778 H   0  0  0  0  0  0  0  0  0  0  0  0
   -0.2428   50.3762  -14.4283 H   0  0  0  0  0  0  0  0  0  0  0  0
    2.2076   51.7368  -16.8650 H   0  0  0  0  0  0  0  0  0  0  0  0
    2.0470   51.3837  -15.1613 H   0  0  0  0  0  0  0  0  0  0  0  0
    1.2732   52.7969  -15.8373 H   0  0  0  0  0  0  0  0  0  0  0  0
    1.4329   49.8137  -17.6048 H   0  0  0  0  0  0  0  0  0  0  0  0
    1.0835   49.0944  -16.0336 H   0  0  0  0  0  0  0  0  0  0  0  0
   -0.3989   48.8955  -18.4606 H   0  0  0  0  0  0  0  0  0  0  0  0
   -0.6322   48.0430  -16.9654 H   0  0  0  0  0  0  0  0  0  0  0  0
  1 30  1  0  0  0  0
  1  6  2  0  0  0  0
  2  1  1  0  0  0  0
  2 43  1  0  0  0  0
  3  2  2  0  0  0  0
  3  4  1  0  0  0  0
  4  5  2  0  0  0  0
  5  6  1  0  0  0  0
  5 44  1  0  0  0  0
  6 36  1  0  0  0  0
  7  8  1  0  0  0  0
  7  3  1  0  0  0  0
  9  7  1  6  0  0  0
 10  9  1  0  0  0  0
 10 12  1  0  0  0  0
 11 10  1  0  0  0  0
 11 45  1  0  0  0  0
 13 15  2  0  0  0  0
 13 11  1  0  0  0  0
 14 13  1  0  0  0  0
 15 16  1  0  0  0  0
 16 17  1  0  0  0  0
 16  9  1  0  0  0  0
 18 19  1  0  0  0  0
 18 15  1  0  0  0  0
 19 20  2  0  0  0  0
 20 46  1  0  0  0  0
 21 19  1  0  0  0  0
 22 20  1  0  0  0  0
 22 47  1  0  0  0  0
 23 22  1  0  0  0  0
 23 48  1  0  0  0  0
 24 21  1  0  0  0  0
 24 23  2  0  0  0  0
 24 49  1  0  0  0  0
 25 26  1  0  0  0  0
 25 21  1  0  0  0  0
 26 18  2  0  0  0  0
 26 50  1  0  0  0  0
 27 25  1  0  0  0  0
 28  4  1  0  0  0  0
 29 28  1  0  0  0  0
 29 51  1  0  0  0  0
 29 52  1  0  0  0  0
 29 53  1  0  0  0  0
 30 33  1  0  0  0  0
 31 34  1  0  0  0  0
 31 30  1  0  0  0  0
 32 31  2  0  0  0  0
 34 54  1  0  0  0  0
 35 34  2  0  0  0  0
 35 55  1  0  0  0  0
 35 56  1  0  0  0  0
 36 37  1  0  0  0  0
 37 38  1  0  0  0  0
 37 57  1  0  0  0  0
 37 58  1  0  0  0  0
 38 59  1  0  0  0  0
 38 60  1  0  0  0  0
 39 40  1  0  0  0  0
 39 38  1  0  0  0  0
 40 61  1  0  0  0  0
 40 62  1  0  0  0  0
 40 63  1  0  0  0  0
 41 39  1  0  0  0  0
 41 64  1  0  0  0  0
 41 65  1  0  0  0  0
 42 36  1  0  0  0  0
 42 41  1  0  0  0  0
 42 66  1  0  0  0  0
 42 67  1  0  0  0  0
M  END
>  <MODEL>
1

>  <REMARK>
 VINA RESULT:      -7.9      0.000      0.000
  7 active torsions:
  status: ('A' for Active; 'I' for Inactive)
    1  A    between atoms: C_2  and  C_3 
       I    between atoms: C_3  and  N_5 
    2  A    between atoms: N_5  and  C_7 
    3  A    between atoms: C_9  and  N_10 
    4  A    between atoms: N_10  and  C_12 
    5  A    between atoms: C_18  and  C_19 
    6  A    between atoms: C_31  and  O_32 
    7  A    between atoms: C_35  and  N_36 

>  <TORSDO>
F 7

$$$$
resistance_project/docking/8faf60323ce63d5a/P00533_WT/docked/molecule_0002_out.pdbqt
 OpenBabel09142609523D

 67 71  0  0  1  0  0  0  0  0999 V2000
    0.0880   51.8580  -19.2190 C   0  0  0  0  0  0  0  0  0  0  0  0
    0.9140   52.1840  -18.1730 C   0  0  0  0  0  0  0  0  0  0  0  0
    1.0690   51.4300  -17.0290 C   0  0  0  0  0  0  0  0  0  0  0  0
    0.3410   50.2600  -16.9250 C   0  0  0  0  0  0  0  0  0  0  0  0
   -0.5060   49.8890  -17.9540 C   0  0  0  0  0  0  0  0  0  0  0  0
   -0.6350   50.6720  -19.0860 C   0  0  0  0  0  0  0  0  0  0  0  0
    1.9520   51.9090  -16.0430 N   0  0  0  0  0  0  0  0  0  0  0  0
    2.7500   52.4610  -16.3530 H   0  0  0  0  0  0  0  0  0  0  0  0
    1.8130   51.6780  -14.6470 C   0  0  1  0  0  0  0  0  0  0  0  0
    2.6100   50.8210  -13.9760 N   0  0  0  0  0  0  0  0  0  0  0  0
    2.4700   50.6080  -12.6340 C   0  0  0  0  0  0  0  0  0  0  0  0
    3.3390   50.3180  -14.4850 H   0  0  0  0  0  0  0  0  0  0  0  0
    1.4660   51.3090  -11.9650 C   0  0  0  0  0  0  0  0  0  0  0  0
    1.2140   51.0980  -10.2390 Cl  0  0  0  0  0  0  0  0  0  0  0  0
    0.6500   52.1850  -12.6470 C   0  0  0  0  0  0  0  0  0  0  0  0
    0.8420   52.3460  -13.9650 N   0  0  0  0  0  0  0  0  0  0  0  0
    0.2400   52.9930  -14.4750 H   0  0  0  0  0  0  0  0  0  0  0  0
   -0.3920   52.9130  -11.9320 C   0  0  0  0  0  0  0  0  0  0  0  0
   -1.7230   52.5850  -11.8350 C   0  0  0  0  0  0  0  0  0  0  0  0
   -2.4280   51.5230  -12.3630 C   0  0  0  0  0  0  0  0  0  0  0  0
   -2.2770   53.5470  -11.0790 N   0  0  0  0  0  0  0  0  0  0  0  0
   -3.7860   51.4670  -12.0830 C   0  0  0  0  0  0  0  0  0  0  0  0
   -4.3820   52.4410  -11.3090 C   0  0  0  0  0  0  0  0  0  0  0  0
   -3.6090   53.4840  -10.8090 C   0  0  0  0  0  0  0  0  0  0  0  0
   -1.3990   54.4400  -10.7040 N   0  0  0  0  0  0  0  0  0  0  0  0
   -0.2190   54.0780  -11.2140 C   0  0  0  0  0  0  0  0  0  0  0  0
   -1.5810   55.2610  -10.1260 H   0  0  0  0  0  0  0  0  0  0  0  0
    0.5010   49.5050  -15.7720 O   0  0  0  0  0  0  0  0  0  0  0  0
   -0.6700   49.0900  -15.0570 C   0  0  0  0  0  0  0  0  0  0  0  0
   -0.0550   52.6620  -20.3890 N   0  0  0  0  0  0  0  0  0  0  0  0
    0.9870   52.5900  -21.3840 C   0  0  0  0  0  0  0  0  0  0  0  0
    2.0230   51.9030  -21.2160 O   0  0  0  0  0  0  0  0  0  0  0  0
   -0.8660   53.2660  -20.5180 H   0  0  0  0  0  0  0  0  0  0  0  0
    0.7400   53.3790  -22.5990 C   0  0  0  0  0  0  0  0  0  0  0  0
    0.7140   52.7680  -23.7950 C   0  0  0  0  0  0  0  0  0  0  0  0
   -1.5380   50.2190  -20.0900 N   0  0  0  0  0  0  0  0  0  0  0  0
   -1.1290   49.4560  -21.2480 C   0  0  0  0  0  0  0  0  0  0  0  0
   -1.8050   49.9940  -22.5110 C   0  0  0  0  0  0  0  0  0  0  0  0
   -2.4480   51.2330  -22.1870 N   0  0  0  0  0  0  0  0  0  0  0  0
   -2.8790   52.0110  -23.3110 C   0  0  0  0  0  0  0  0  0  0  0  0
   -3.4900   51.1160  -21.1820 C   0  0  0  0  0  0  0  0  0  0  0  0
   -2.9490   50.5770  -19.8820 C   0  0  0  0  0  0  0  0  0  0  0  0
    1.4590   53.0572  -18.2480 H   0  0  0  0  0  0  0  0  0  0  0  0
   -1.0494   49.0152  -17.8754 H   0  0  0  0  0  0  0  0  0  0  0  0
    3.4003   50.8640  -12.1715 H   0  0  0  0  0  0  0  0  0  0  0  0
   -1.9662   50.8028  -12.9401 H   0  0  0  0  0  0  0  0  0  0  0  0
   -3.9588   50.5340  -11.5884 H   0  0  0  0  0  0  0  0  0  0  0  0
   -5.3922   52.3963  -11.1027 H   0  0  0  0  0  0  0  0  0  0  0  0
   -4.0492   54.2153  -10.2290 H   0  0  0  0  0  0  0  0  0  0  0  0
    0.6719   54.5844  -11.0916 H   0  0  0  0  0  0  0  0  0  0  0  0
   -0.3806   48.5207  -14.1985 H   0  0  0  0  0  0  0  0  0  0  0  0
   -1.2824   48.4874  -15.6947 H   0  0  0  0  0  0  0  0  0  0  0  0
   -1.2211   49.9521  -14.7441 H   0  0  0  0  0  0  0  0  0  0  0  0
    0.5873   54.3975  -22.5337 H   0  0  0  0  0  0  0  0  0  0  0  0
    0.8670   51.7493  -23.8575 H   0  0  0  0  0  0  0  0  0  0  0  0
    0.5410   53.3173  -24.6514 H   0  0  0  0  0  0  0  0  0  0  0  0
   -0.0672   49.5272  -21.3594 H   0  0  0  0  0  0  0  0  0  0  0  0
   -1.4179   48.4351  -21.1092 H   0  0  0  0  0  0  0  0  0  0  0  0
   -1.0711   50.1561  -23.2726 H   0  0  0  0  0  0  0  0  0  0  0  0
   -2.5251   49.2893  -22.8713 H   0  0  0  0  0  0  0  0  0  0  0  0
   -2.0860   52.0736  -24.0266 H   0  0  0  0  0  0  0  0  0  0  0  0
   -3.1425   52.9950  -22.9837 H   0  0  0  0  0  0  0  0  0  0  0  0
   -3.7303   51.5452  -23.7618 H   0  0  0  0  0  0  0  0  0  0  0  0
   -4.2485   50.4537  -21.5437 H   0  0  0  0  0  0  0  0  0  0  0  0
   -3.8900   52.0915  -20.9993 H   0  0  0  0  0  0  0  0  0  0  0  0
   -3.5041   49.7103  -19.5893 H   0  0  0  0  0  0  0  0  0  0  0  0
   -3.0357   51.3128  -19.1100 H   0  0  0  0  0  0  0  0  0  0  0  0
  1  6  2  0  0  0  0
  1  2  1  0  0  0  0
  2  3  2  0  0  0  0
  2 43  1  0  0  0  0
  3  4  1  0  0  0  0
  3  7  1  0  0  0  0
  4 28  1  0  0  0  0
  5  4  2  0  0  0  0
  5 44  1  0  0  0  0
  6  5  1  0  0  0  0
  8  7  1  0  0  0  0
  9  7  1  1  0  0  0
  9 10  1  0  0  0  0
  9 16  1  0  0  0  0
 10 11  1  0  0  0  0
 11 13  1  0  0  0  0
 11 45  1  0  0  0  0
 12 10  1  0  0  0  0
 13 14  1  0  0  0  0
 15 13  2  0  0  0  0
 15 18  1  0  0  0  0
 16 15  1  0  0  0  0
 17 16  1  0  0  0  0
 18 19  1  0  0  0  0
 18 26  2  0  0  0  0
 19 21  1  0  0  0  0
 20 22  1  0  0  0  0
 20 19  2  0  0  0  0
 20 46  1  0  0  0  0
 21 24  1  0  0  0  0
 21 25  1  0  0  0  0
 22 23  1  0  0  0  0
 22 47  1  0  0  0  0
 23 24  2  0  0  0  0
 23 48  1  0  0  0  0
 24 49  1  0  0  0  0
 25 27  1  0  0  0  0
 26 25  1  0  0  0  0
 26 50  1  0  0  0  0
 28 29  1  0  0  0  0
 29 51  1  0  0  0  0
 29 52  1  0  0  0  0
 29 53  1  0  0  0  0
 30  1  1  0  0  0  0
 31 32  2  0  0  0  0
 31 30  1  0  0  0  0
 33 30  1  0  0  0  0
 34 31  1  0  0  0  0
 34 54  1  0  0  0  0
 35 34  2  0  0  0  0
 35 55  1  0  0  0  0
 35 56  1  0  0  0  0
 36 42  1  0  0  0  0
 36  6  1  0  0  0  0
 37 36  1  0  0  0  0
 37 57  1  0  0  0  0
 37 58  1  0  0  0  0
 38 39  1  0  0  0  0
 38 37  1  0  0  0  0
 38 59  1  0  0  0  0
 38 60  1  0  0  0  0
 39 41  1  0  0  0  0
 40 39  1  0  0  0  0
 40 61  1  0  0  0  0
 40 62  1  0  0  0  0
 40 63  1  0  0  0  0
 41 42  1  0  0  0  0
 41 64  1  0  0  0  0
 41 65  1  0  0  0  0
 42 66  1  0  0  0  0
 42 67  1  0  0  0  0
M  END
>  <REMARK>
 VINA RESULT:      -7.9      4.326     10.142
  7 active torsions:
  status: ('A' for Active; 'I' for Inactive)
    1  A    between atoms: C_2  and  C_3 
       I    between atoms: C_3  and  N_5 
    2  A    between atoms: N_5  and  C_7 
    3  A    between atoms: C_9  and  N_10 
    4  A    between atoms: N_10  and  C_12 
    5  A    between atoms: C_18  and  C_19 
    6  A    between atoms: C_31  and  O_32 
    7  A    between atoms: C_35  and  N_36 

>  <TORSDO>
F 7

$$$$
resistance_project/docking/8faf60323ce63d5a/P00533_WT/docked/molecule_0002_out.pdbqt
 OpenBabel09142609523D

 67 71  0  0  1  0  0  0  0  0999 V2000
   -0.9380   50.0790  -21.1620 C   0  0  0  0  0  0  0  0  0  0  0  0
   -0.5600   49.6200  -19.9250 C   0  0  0  0  0  0  0  0  0  0  0  0
   -1.3230   48.7920  -19.1280 C   0  0  0  0  0  0  0  0  0  0  0  0
   -2.5560   48.3930  -19.6060 C   0  0  0  0  0  0  0  0  0  0  0  0
   -2.9810   48.8300  -20.8470 C   0  0  0  0  0  0  0  0  0  0  0  0
   -2.1890   49.6600  -21.6190 C   0  0  0  0  0  0  0  0  0  0  0  0
   -0.7940   48.4170  -17.8790 N   0  0  0  0  0  0  0  0  0  0  0  0
   -0.4130   47.4760  -17.7900 H   0  0  0  0  0  0  0  0  0  0  0  0
   -0.7520   49.2540  -16.7310 C   0  0  1  0  0  0  0  0  0  0  0  0
   -1.8680   49.7760  -16.1790 N   0  0  0  0  0  0  0  0  0  0  0  0
   -1.8170   50.5770  -15.0730 C   0  0  0  0  0  0  0  0  0  0  0  0
   -2.7740   49.5650  -16.5980 H   0  0  0  0  0  0  0  0  0  0  0  0
   -0.5630   50.8480  -14.5220 C   0  0  0  0  0  0  0  0  0  0  0  0
   -0.4030   51.8680  -13.1000 Cl  0  0  0  0  0  0  0  0  0  0  0  0
    0.5780   50.3170  -15.0830 C   0  0  0  0  0  0  0  0  0  0  0  0
    0.4550   49.5370  -16.1680 N   0  0  0  0  0  0  0  0  0  0  0  0
    1.2970   49.1420  -16.5880 H   0  0  0  0  0  0  0  0  0  0  0  0
    1.8790   50.6050  -14.4920 C   0  0  0  0  0  0  0  0  0  0  0  0
    2.8430   51.4590  -14.9720 C   0  0  0  0  0  0  0  0  0  0  0  0
    2.8600   52.2520  -16.1000 C   0  0  0  0  0  0  0  0  0  0  0  0
    3.8540   51.3920  -14.0910 N   0  0  0  0  0  0  0  0  0  0  0  0
    3.9980   53.0160  -16.3160 C   0  0  0  0  0  0  0  0  0  0  0  0
    5.0520   52.9680  -15.4280 C   0  0  0  0  0  0  0  0  0  0  0  0
    4.9660   52.1440  -14.3100 C   0  0  0  0  0  0  0  0  0  0  0  0
    3.5940   50.5680  -13.1100 N   0  0  0  0  0  0  0  0  0  0  0  0
    2.3780   50.0620  -13.3260 C   0  0  0  0  0  0  0  0  0  0  0  0
    4.2080   50.3530  -12.3230 H   0  0  0  0  0  0  0  0  0  0  0  0
   -3.3180   47.5600  -18.8000 O   0  0  0  0  0  0  0  0  0  0  0  0
   -4.7270   47.4670  -19.0490 C   0  0  0  0  0  0  0  0  0  0  0  0
   -0.1290   50.9380  -21.9630 N   0  0  0  0  0  0  0  0  0  0  0  0
   -0.0670   52.3330  -21.6010 C   0  0  0  0  0  0  0  0  0  0  0  0
   -0.7450   52.8070  -20.6590 O   0  0  0  0  0  0  0  0  0  0  0  0
    0.3890   50.5780  -22.7650 H   0  0  0  0  0  0  0  0  0  0  0  0
    0.8470   53.1450  -22.4170 C   0  0  0  0  0  0  0  0  0  0  0  0
    1.5820   54.1060  -21.8340 C   0  0  0  0  0  0  0  0  0  0  0  0
   -2.7110   50.0700  -22.8790 N   0  0  0  0  0  0  0  0  0  0  0  0
   -2.5460   49.3100  -24.0980 C   0  0  0  0  0  0  0  0  0  0  0  0
   -2.1570   50.2310  -25.2570 C   0  0  0  0  0  0  0  0  0  0  0  0
   -1.8470   51.5240  -24.7220 N   0  0  0  0  0  0  0  0  0  0  0  0
   -1.1900   52.4200  -25.6270 C   0  0  0  0  0  0  0  0  0  0  0  0
   -2.9580   52.1670  -24.0410 C   0  0  0  0  0  0  0  0  0  0  0  0
   -3.4470   51.3420  -22.8770 C   0  0  0  0  0  0  0  0  0  0  0  0
    0.3611   49.9155  -19.5653 H   0  0  0  0  0  0  0  0  0  0  0  0
   -3.9030   48.5323  -21.2024 H   0  0  0  0  0  0  0  0  0  0  0  0
   -2.4052   50.1080  -14.3121 H   0  0  0  0  0  0  0  0  0  0  0  0
    2.0622   52.2762  -16.7542 H   0  0  0  0  0  0  0  0  0  0  0  0
    3.6788   54.0364  -16.3581 H   0  0  0  0  0  0  0  0  0  0  0  0
    5.8967   53.5379  -15.5911 H   0  0  0  0  0  0  0  0  0  0  0  0
    5.7517   52.1032  -13.6421 H   0  0  0  0  0  0  0  0  0  0  0  0
    1.8929   49.3797  -12.7226 H   0  0  0  0  0  0  0  0  0  0  0  0
   -5.1691   46.7898  -18.3484 H   0  0  0  0  0  0  0  0  0  0  0  0
   -4.8905   47.1081  -20.0437 H   0  0  0  0  0  0  0  0  0  0  0  0
   -5.1729   48.4336  -18.9408 H   0  0  0  0  0  0  0  0  0  0  0  0
    0.9235   52.9775  -23.4324 H   0  0  0  0  0  0  0  0  0  0  0  0
    1.5033   54.2711  -20.8183 H   0  0  0  0  0  0  0  0  0  0  0  0
    2.2255   54.6793  -22.4017 H   0  0  0  0  0  0  0  0  0  0  0  0
   -1.7773   48.5794  -23.9558 H   0  0  0  0  0  0  0  0  0  0  0  0
   -3.4728   48.8301  -24.3341 H   0  0  0  0  0  0  0  0  0  0  0  0
   -1.3014   49.8343  -25.7625 H   0  0  0  0  0  0  0  0  0  0  0  0
   -2.9647   50.3055  -25.9548 H   0  0  0  0  0  0  0  0  0  0  0  0
   -0.3804   51.9115  -26.1075 H   0  0  0  0  0  0  0  0  0  0  0  0
   -0.8112   53.2608  -25.0843 H   0  0  0  0  0  0  0  0  0  0  0  0
   -1.8878   52.7568  -26.3649 H   0  0  0  0  0  0  0  0  0  0  0  0
   -3.7615   52.2989  -24.7352 H   0  0  0  0  0  0  0  0  0  0  0  0
   -2.6199   53.1099  -23.6648 H   0  0  0  0  0  0  0  0  0  0  0  0
   -4.4954   51.1547  -22.9800 H   0  0  0  0  0  0  0  0  0  0  0  0
   -3.2833   51.8640  -21.9574 H   0  0  0  0  0  0  0  0  0  0  0  0
  1  2  1  0  0  0  0
  2  3  2  0  0  0  0
  2 43  1  0  0  0  0
  3  7  1  0  0  0  0
  4  3  1  0  0  0  0
  4 28  1  0  0  0  0
  5  4  2  0  0  0  0
  5 44  1  0  0  0  0
  6  1  2  0  0  0  0
  6  5  1  0  0  0  0
  7  8  1  0  0  0  0
  9  7  1  1  0  0  0
  9 10  1  0  0  0  0
  9 16  1  0  0  0  0
 10 11  1  0  0  0  0
 11 13  1  0  0  0  0
 11 45  1  0  0  0  0
 12 10  1  0  0  0  0
 13 14  1  0  0  0  0
 15 13  2  0  0  0  0
 15 18  1  0  0  0  0
 16 15  1  0  0  0  0
 17 16  1  0  0  0  0
 18 26  2  0  0  0  0
 19 18  1  0  0  0  0
 19 21  1  0  0  0  0
 20 19  2  0  0  0  0
 20 46  1  0  0  0  0
 21 25  1  0  0  0  0
 22 20  1  0  0  0  0
 22 23  1  0  0  0  0
 22 47  1  0  0  0  0
 23 24  2  0  0  0  0
 23 48  1  0  0  0  0
 24 21  1  0  0  0  0
 24 49  1  0  0  0  0
 25 27  1  0  0  0  0
 26 25  1  0  0  0  0
 26 50  1  0  0  0  0
 29 28  1  0  0  0  0
 29 51  1  0  0  0  0
 29 52  1  0  0  0  0
 29 53  1  0  0  0  0
 30 31  1  0  0  0  0
 30  1  1  0  0  0  0
 31 32  2  0  0  0  0
 33 30  1  0  0  0  0
 34 35  2  0  0  0  0
 34 31  1  0  0  0  0
 34 54  1  0  0  0  0
 35 55  1  0  0  0  0
 35 56  1  0  0  0  0
 36 42  1  0  0  0  0
 36  6  1  0  0  0  0
 37 36  1  0  0  0  0
 37 57  1  0  0  0  0
 37 58  1  0  0  0  0
 38 39  1  0  0  0  0
 38 37  1  0  0  0  0
 38 59  1  0  0  0  0
 38 60  1  0  0  0  0
 39 41  1  0  0  0  0
 40 39  1  0  0  0  0
 40 61  1  0  0  0  0
 40 62  1  0  0  0  0
 40 63  1  0  0  0  0
 41 42  1  0  0  0  0
 41 64  1  0  0  0  0
 41 65  1  0  0  0  0
 42 66  1  0  0  0  0
 42 67  1  0  0  0  0
M  END
>  <REMARK>
 VINA RESULT:      -7.5      3.265      8.576
  7 active torsions:
  status: ('A' for Active; 'I' for Inactive)
    1  A    between atoms: C_2  and  C_3 
       I    between atoms: C_3  and  N_5 
    2  A    between atoms: N_5  and  C_7 
    3  A    between atoms: C_9  and  N_10 
    4  A    between atoms: N_10  and  C_12 
    5  A    between atoms: C_18  and  C_19 
    6  A    between atoms: C_31  and  O_32 
    7  A    between atoms: C_35  and  N_36 

>  <TORSDO>
F 7

$$$$
resistance_project/docking/8faf60323ce63d5a/P00533_WT/docked/molecule_0002_out.pdbqt
 OpenBabel09142609523D

 67 71  0  0  1  0  0  0  0  0999 V2000
    0.0340   50.5420  -15.8170 C   0  0  0  0  0  0  0  0  0  0  0  0
    0.4830   50.4470  -17.1110 C   0  0  0  0  0  0  0  0  0  0  0  0
   -0.3150   50.1730  -18.2020 C   0  0  0  0  0  0  0  0  0  0  0  0
   -1.6640   49.9790  -17.9810 C   0  0  0  0  0  0  0  0  0  0  0  0
   -2.1650   50.0630  -16.6940 C   0  0  0  0  0  0  0  0  0  0  0  0
   -1.3340   50.3400  -15.6240 C   0  0  0  0  0  0  0  0  0  0  0  0
    0.3040   50.1020  -19.4640 N   0  0  0  0  0  0  0  0  0  0  0  0
    0.5920   49.1830  -19.7980 H   0  0  0  0  0  0  0  0  0  0  0  0
    0.5580   51.2180  -20.3080 C   0  0  1  0  0  0  0  0  0  0  0  0
    1.1600   52.3390  -19.8570 N   0  0  0  0  0  0  0  0  0  0  0  0
    1.4020   53.4040  -20.6770 C   0  0  0  0  0  0  0  0  0  0  0  0
    1.4440   52.3910  -18.8780 H   0  0  0  0  0  0  0  0  0  0  0  0
    1.0040   53.3040  -22.0110 C   0  0  0  0  0  0  0  0  0  0  0  0
    1.2750   54.6260  -23.1370 Cl  0  0  0  0  0  0  0  0  0  0  0  0
    0.3880   52.1610  -22.4730 C   0  0  0  0  0  0  0  0  0  0  0  0
    0.1820   51.1520  -21.6140 N   0  0  0  0  0  0  0  0  0  0  0  0
   -0.2740   50.3040  -21.9520 H   0  0  0  0  0  0  0  0  0  0  0  0
   -0.0180   52.0700  -23.8710 C   0  0  0  0  0  0  0  0  0  0  0  0
   -1.2980   52.0260  -24.3670 C   0  0  0  0  0  0  0  0  0  0  0  0
   -2.5150   52.0510  -23.7170 C   0  0  0  0  0  0  0  0  0  0  0  0
   -1.1660   51.9480  -25.7010 N   0  0  0  0  0  0  0  0  0  0  0  0
   -3.6530   51.9900  -24.5090 C   0  0  0  0  0  0  0  0  0  0  0  0
   -3.5470   51.9080  -25.8820 C   0  0  0  0  0  0  0  0  0  0  0  0
   -2.2860   51.8880  -26.4700 C   0  0  0  0  0  0  0  0  0  0  0  0
    0.0890   51.9390  -26.0680 N   0  0  0  0  0  0  0  0  0  0  0  0
    0.8290   52.0140  -24.9590 C   0  0  0  0  0  0  0  0  0  0  0  0
    0.4390   51.8850  -27.0250 H   0  0  0  0  0  0  0  0  0  0  0  0
   -2.4620   49.7040  -19.0820 O   0  0  0  0  0  0  0  0  0  0  0  0
   -3.1340   50.7920  -19.7300 C   0  0  0  0  0  0  0  0  0  0  0  0
    0.8840   50.8240  -14.7070 N   0  0  0  0  0  0  0  0  0  0  0  0
    1.7080   49.7530  -14.2030 C   0  0  0  0  0  0  0  0  0  0  0  0
    1.6450   48.5890  -14.6660 O   0  0  0  0  0  0  0  0  0  0  0  0
    0.9090   51.7520  -14.2850 H   0  0  0  0  0  0  0  0  0  0  0  0
    2.6190   50.1310  -13.1130 C   0  0  0  0  0  0  0  0  0  0  0  0
    2.8020   51.4290  -12.8200 C   0  0  0  0  0  0  0  0  0  0  0  0
   -1.9330   50.3970  -14.3340 N   0  0  0  0  0  0  0  0  0  0  0  0
   -2.5370   51.5910  -13.7850 C   0  0  0  0  0  0  0  0  0  0  0  0
   -2.1100   51.7890  -12.3290 C   0  0  0  0  0  0  0  0  0  0  0  0
   -1.0580   50.8600  -12.0370 N   0  0  0  0  0  0  0  0  0  0  0  0
   -0.3480   51.1030  -10.8160 C   0  0  0  0  0  0  0  0  0  0  0  0
   -1.4440   49.4650  -12.1660 C   0  0  0  0  0  0  0  0  0  0  0  0
   -1.9050   49.1440  -13.5660 C   0  0  0  0  0  0  0  0  0  0  0  0
    1.4909   50.5911  -17.2795 H   0  0  0  0  0  0  0  0  0  0  0  0
   -3.1734   49.9168  -16.5303 H   0  0  0  0  0  0  0  0  0  0  0  0
    0.8996   54.2503  -20.2570 H   0  0  0  0  0  0  0  0  0  0  0  0
   -2.5761   52.1123  -22.6886 H   0  0  0  0  0  0  0  0  0  0  0  0
   -4.2013   51.1276  -24.1918 H   0  0  0  0  0  0  0  0  0  0  0  0
   -4.3954   51.8619  -26.4678 H   0  0  0  0  0  0  0  0  0  0  0  0
   -2.2001   51.8272  -27.4966 H   0  0  0  0  0  0  0  0  0  0  0  0
    1.8602   52.0278  -24.9218 H   0  0  0  0  0  0  0  0  0  0  0  0
   -3.7045   50.4185  -20.5546 H   0  0  0  0  0  0  0  0  0  0  0  0
   -2.4114   51.4962  -20.0861 H   0  0  0  0  0  0  0  0  0  0  0  0
   -3.7877   51.2734  -19.0329 H   0  0  0  0  0  0  0  0  0  0  0  0
    3.1153   49.4030  -12.5757 H   0  0  0  0  0  0  0  0  0  0  0  0
    2.3043   52.1548  -13.3590 H   0  0  0  0  0  0  0  0  0  0  0  0
    3.4403   51.7005  -12.0559 H   0  0  0  0  0  0  0  0  0  0  0  0
   -3.6021   51.4989  -13.8298 H   0  0  0  0  0  0  0  0  0  0  0  0
   -2.2144   52.4356  -14.3573 H   0  0  0  0  0  0  0  0  0  0  0  0
   -2.9418   51.6089  -11.6805 H   0  0  0  0  0  0  0  0  0  0  0  0
   -1.7680   52.7917  -12.1787 H   0  0  0  0  0  0  0  0  0  0  0  0
   -0.0819   52.1378  -10.7580 H   0  0  0  0  0  0  0  0  0  0  0  0
    0.5389   50.5049  -10.7941 H   0  0  0  0  0  0  0  0  0  0  0  0
   -0.9710   50.8478   -9.9843 H   0  0  0  0  0  0  0  0  0  0  0  0
   -0.6027   48.8484  -11.9274 H   0  0  0  0  0  0  0  0  0  0  0  0
   -2.2564   49.2790  -11.4950 H   0  0  0  0  0  0  0  0  0  0  0  0
   -1.2267   48.4536  -14.0222 H   0  0  0  0  0  0  0  0  0  0  0  0
   -2.8782   48.6999  -13.5440 H   0  0  0  0  0  0  0  0  0  0  0  0
  1  6  1  0  0  0  0
  1 30  1  0  0  0  0
  2  1  2  0  0  0  0
  2 43  1  0  0  0  0
  3  4  2  0  0  0  0
  3  2  1  0  0  0  0
  4  5  1  0  0  0  0
  5  6  2  0  0  0  0
  5 44  1  0  0  0  0
  6 36  1  0  0  0  0
  7  3  1  0  0  0  0
  8  7  1  0  0  0  0
  9 10  1  0  0  0  0
  9  7  1  6  0  0  0
 10 12  1  0  0  0  0
 11 10  1  0  0  0  0
 11 45  1  0  0  0  0
 13 11  1  0  0  0  0
 14 13  1  0  0  0  0
 15 13  2  0  0  0  0
 15 16  1  0  0  0  0
 16  9  1  0  0  0  0
 17 16  1  0  0  0  0
 18 15  1  0  0  0  0
 19 18  1  0  0  0  0
 19 20  2  0  0  0  0
 20 46  1  0  0  0  0
 21 19  1  0  0  0  0
 22 20  1  0  0  0  0
 22 47  1  0  0  0  0
 23 22  1  0  0  0  0
 23 48  1  0  0  0  0
 24 23  2  0  0  0  0
 24 21  1  0  0  0  0
 24 49  1  0  0  0  0
 25 21  1  0  0  0  0
 25 26  1  0  0  0  0
 26 18  2  0  0  0  0
 26 50  1  0  0  0  0
 27 25  1  0  0  0  0
 28  4  1  0  0  0  0
 29 28  1  0  0  0  0
 29 51  1  0  0  0  0
 29 52  1  0  0  0  0
 29 53  1  0  0  0  0
 30 33  1  0  0  0  0
 30 31  1  0  0  0  0
 31 34  1  0  0  0  0
 32 31  2  0  0  0  0
 34 35  2  0  0  0  0
 34 54  1  0  0  0  0
 35 55  1  0  0  0  0
 35 56  1  0  0  0  0
 36 37  1  0  0  0  0
 36 42  1  0  0  0  0
 37 38  1  0  0  0  0
 37 57  1  0  0  0  0
 37 58  1  0  0  0  0
 38 39  1  0  0  0  0
 38 59  1  0  0  0  0
 38 60  1  0  0  0  0
 39 40  1  0  0  0  0
 40 61  1  0  0  0  0
 40 62  1  0  0  0  0
 40 63  1  0  0  0  0
 41 39  1  0  0  0  0
 41 64  1  0  0  0  0
 41 65  1  0  0  0  0
 42 41  1  0  0  0  0
 42 66  1  0  0  0  0
 42 67  1  0  0  0  0
M  END
>  <REMARK>
 VINA RESULT:      -7.5      2.787      5.064
  7 active torsions:
  status: ('A' for Active; 'I' for Inactive)
    1  A    between atoms: C_2  and  C_3 
       I    between atoms: C_3  and  N_5 
    2  A    between atoms: N_5  and  C_7 
    3  A    between atoms: C_9  and  N_10 
    4  A    between atoms: N_10  and  C_12 
    5  A    between atoms: C_18  and  C_19 
    6  A    between atoms: C_31  and  O_32 
    7  A    between atoms: C_35  and  N_36 

>  <TORSDO>
F 7

$$$$
resistance_project/docking/8faf60323ce63d5a/P00533_WT/docked/molecule_0002_out.pdbqt
 OpenBabel09142609523D

 67 71  0  0  1  0  0  0  0  0999 V2000
   -0.4990   50.8710  -20.9560 C   0  0  0  0  0  0  0  0  0  0  0  0
    0.2920   50.9410  -19.8370 C   0  0  0  0  0  0  0  0  0  0  0  0
   -0.1280   50.6380  -18.5580 C   0  0  0  0  0  0  0  0  0  0  0  0
   -1.4390   50.2350  -18.3890 C   0  0  0  0  0  0  0  0  0  0  0  0
   -2.2750   50.1500  -19.4870 C   0  0  0  0  0  0  0  0  0  0  0  0
   -1.8180   50.4620  -20.7540 C   0  0  0  0  0  0  0  0  0  0  0  0
    0.8060   50.7680  -17.5140 N   0  0  0  0  0  0  0  0  0  0  0  0
    1.6890   51.2310  -17.7260 H   0  0  0  0  0  0  0  0  0  0  0  0
    0.6090   50.3030  -16.1850 C   0  0  1  0  0  0  0  0  0  0  0  0
    0.7810   49.0080  -15.8430 N   0  0  0  0  0  0  0  0  0  0  0  0
    0.5930   48.5710  -14.5630 C   0  0  0  0  0  0  0  0  0  0  0  0
    1.0610   48.3380  -16.5600 H   0  0  0  0  0  0  0  0  0  0  0  0
    0.2100   49.5100  -13.6030 C   0  0  0  0  0  0  0  0  0  0  0  0
   -0.0550   49.0380  -11.9320 Cl  0  0  0  0  0  0  0  0  0  0  0  0
    0.0330   50.8320  -13.9500 C   0  0  0  0  0  0  0  0  0  0  0  0
    0.2360   51.1930  -15.2260 N   0  0  0  0  0  0  0  0  0  0  0  0
    0.1060   52.1710  -15.4870 H   0  0  0  0  0  0  0  0  0  0  0  0
   -0.3620   51.8020  -12.9350 C   0  0  0  0  0  0  0  0  0  0  0  0
   -1.6350   52.0840  -12.5010 C   0  0  0  0  0  0  0  0  0  0  0  0
   -2.8510   51.5590  -12.8830 C   0  0  0  0  0  0  0  0  0  0  0  0
   -1.4930   53.0360  -11.5640 N   0  0  0  0  0  0  0  0  0  0  0  0
   -3.9800   52.0580  -12.2490 C   0  0  0  0  0  0  0  0  0  0  0  0
   -3.8650   53.0370  -11.2830 C   0  0  0  0  0  0  0  0  0  0  0  0
   -2.6050   53.5200  -10.9470 C   0  0  0  0  0  0  0  0  0  0  0  0
   -0.2400   53.3640  -11.3860 N   0  0  0  0  0  0  0  0  0  0  0  0
    0.4900   52.6180  -12.2180 C   0  0  0  0  0  0  0  0  0  0  0  0
    0.1150   54.0600  -10.7290 H   0  0  0  0  0  0  0  0  0  0  0  0
   -1.8550   49.9310  -17.1010 O   0  0  0  0  0  0  0  0  0  0  0  0
   -3.1340   50.4100  -16.6630 C   0  0  0  0  0  0  0  0  0  0  0  0
   -0.0370   51.1940  -22.2670 N   0  0  0  0  0  0  0  0  0  0  0  0
    0.3580   52.5580  -22.5220 C   0  0  0  0  0  0  0  0  0  0  0  0
    0.2450   53.4580  -21.6570 O   0  0  0  0  0  0  0  0  0  0  0  0
    0.0120   50.4850  -22.9980 H   0  0  0  0  0  0  0  0  0  0  0  0
    0.9000   52.8040  -23.8660 C   0  0  0  0  0  0  0  0  0  0  0  0
    0.8640   51.8280  -24.7880 C   0  0  0  0  0  0  0  0  0  0  0  0
   -2.7500   50.3570  -21.8260 N   0  0  0  0  0  0  0  0  0  0  0  0
   -2.6920   49.3260  -22.8380 C   0  0  0  0  0  0  0  0  0  0  0  0
   -2.9150   49.9250  -24.2280 C   0  0  0  0  0  0  0  0  0  0  0  0
   -2.8770   51.3540  -24.1160 N   0  0  0  0  0  0  0  0  0  0  0  0
   -2.7800   52.0630  -25.3580 C   0  0  0  0  0  0  0  0  0  0  0  0
   -3.9090   51.9100  -23.2580 C   0  0  0  0  0  0  0  0  0  0  0  0
   -3.8060   51.3800  -21.8500 C   0  0  0  0  0  0  0  0  0  0  0  0
    1.2714   51.2419  -19.9608 H   0  0  0  0  0  0  0  0  0  0  0  0
   -3.2539   49.8494  -19.3590 H   0  0  0  0  0  0  0  0  0  0  0  0
    1.5148   48.1377  -14.2353 H   0  0  0  0  0  0  0  0  0  0  0  0
   -2.9187   50.8277  -13.6080 H   0  0  0  0  0  0  0  0  0  0  0  0
   -4.4647   51.2246  -11.7849 H   0  0  0  0  0  0  0  0  0  0  0  0
   -4.7065   53.4073  -10.8142 H   0  0  0  0  0  0  0  0  0  0  0  0
   -2.5126   54.2509  -10.2243 H   0  0  0  0  0  0  0  0  0  0  0  0
    1.5175   52.6464  -12.3098 H   0  0  0  0  0  0  0  0  0  0  0  0
   -3.3072   50.0942  -15.6554 H   0  0  0  0  0  0  0  0  0  0  0  0
   -3.8994   50.0142  -17.2973 H   0  0  0  0  0  0  0  0  0  0  0  0
   -3.1496   51.4789  -16.7095 H   0  0  0  0  0  0  0  0  0  0  0  0
    1.3066   53.7231  -24.1003 H   0  0  0  0  0  0  0  0  0  0  0  0
    0.4569   50.9096  -24.5516 H   0  0  0  0  0  0  0  0  0  0  0  0
    1.2434   51.9965  -25.7328 H   0  0  0  0  0  0  0  0  0  0  0  0
   -1.7311   48.8563  -22.8072 H   0  0  0  0  0  0  0  0  0  0  0  0
   -3.4607   48.6075  -22.6439 H   0  0  0  0  0  0  0  0  0  0  0  0
   -2.1442   49.5939  -24.8922 H   0  0  0  0  0  0  0  0  0  0  0  0
   -3.8616   49.6115  -24.6161 H   0  0  0  0  0  0  0  0  0  0  0  0
   -2.0115   51.6247  -25.9598 H   0  0  0  0  0  0  0  0  0  0  0  0
   -2.5413   53.0882  -25.1658 H   0  0  0  0  0  0  0  0  0  0  0  0
   -3.7148   52.0054  -25.8755 H   0  0  0  0  0  0  0  0  0  0  0  0
   -4.8679   51.6523  -23.6567 H   0  0  0  0  0  0  0  0  0  0  0  0
   -3.7810   52.9718  -23.2259 H   0  0  0  0  0  0  0  0  0  0  0  0
   -4.7388   50.9460  -21.5562 H   0  0  0  0  0  0  0  0  0  0  0  0
   -3.5714   52.1726  -21.1706 H   0  0  0  0  0  0  0  0  0  0  0  0
  1  6  2  0  0  0  0
  1  2  1  0  0  0  0
  2  3  2  0  0  0  0
  2 43  1  0  0  0  0
  3  4  1  0  0  0  0
  3  7  1  0  0  0  0
  4 28  1  0  0  0  0
  5  4  2  0  0  0  0
  5 44  1  0  0  0  0
  6  5  1  0  0  0  0
  8  7  1  0  0  0  0
  9  7  1  1  0  0  0
  9 10  1  0  0  0  0
  9 16  1  0  0  0  0
 10 11  1  0  0  0  0
 11 13  1  0  0  0  0
 11 45  1  0  0  0  0
 12 10  1  0  0  0  0
 13 14  1  0  0  0  0
 15 13  2  0  0  0  0
 15 18  1  0  0  0  0
 16 15  1  0  0  0  0
 17 16  1  0  0  0  0
 18 19  1  0  0  0  0
 18 26  2  0  0  0  0
 19 21  1  0  0  0  0
 20 19  2  0  0  0  0
 20 22  1  0  0  0  0
 20 46  1  0  0  0  0
 21 25  1  0  0  0  0
 21 24  1  0  0  0  0
 22 23  1  0  0  0  0
 22 47  1  0  0  0  0
 23 24  2  0  0  0  0
 23 48  1  0  0  0  0
 24 49  1  0  0  0  0
 25 27  1  0  0  0  0
 26 25  1  0  0  0  0
 26 50  1  0  0  0  0
 28 29  1  0  0  0  0
 29 51  1  0  0  0  0
 29 52  1  0  0  0  0
 29 53  1  0  0  0  0
 30  1  1  0  0  0  0
 31 30  1  0  0  0  0
 31 32  2  0  0  0  0
 33 30  1  0  0  0  0
 34 31  1  0  0  0  0
 34 54  1  0  0  0  0
 35 34  2  0  0  0  0
 35 55  1  0  0  0  0
 35 56  1  0  0  0  0
 36  6  1  0  0  0  0
 37 36  1  0  0  0  0
 37 57  1  0  0  0  0
 37 58  1  0  0  0  0
 38 39  1  0  0  0  0
 38 37  1  0  0  0  0
 38 59  1  0  0  0  0
 38 60  1  0  0  0  0
 39 41  1  0  0  0  0
 40 39  1  0  0  0  0
 40 61  1  0  0  0  0
 40 62  1  0  0  0  0
 40 63  1  0  0  0  0
 41 42  1  0  0  0  0
 41 64  1  0  0  0  0
 41 65  1  0  0  0  0
 42 36  1  0  0  0  0
 42 66  1  0  0  0  0
 42 67  1  0  0  0  0
M  END
>  <REMARK>
 VINA RESULT:      -7.4      3.745      9.547
  7 active torsions:
  status: ('A' for Active; 'I' for Inactive)
    1  A    between atoms: C_2  and  C_3 
       I    between atoms: C_3  and  N_5 
    2  A    between atoms: N_5  and  C_7 
    3  A    between atoms: C_9  and  N_10 
    4  A    between atoms: N_10  and  C_12 
    5  A    between atoms: C_18  and  C_19 
    6  A    between atoms: C_31  and  O_32 
    7  A    between atoms: C_35  and  N_36 

>  <TORSDO>
F 7

$$$$
resistance_project/docking/8faf60323ce63d5a/P00533_WT/docked/molecule_0002_out.pdbqt
 OpenBabel09142609523D

 67 71  0  0  1  0  0  0  0  0999 V2000
   -3.6950   49.2000  -23.0820 C   0  0  0  0  0  0  0  0  0  0  0  0
   -2.5510   49.6320  -23.7050 C   0  0  0  0  0  0  0  0  0  0  0  0
   -2.4470   49.9110  -25.0520 C   0  0  0  0  0  0  0  0  0  0  0  0
   -3.5730   49.7440  -25.8330 C   0  0  0  0  0  0  0  0  0  0  0  0
   -4.7500   49.3100  -25.2520 C   0  0  0  0  0  0  0  0  0  0  0  0
   -4.8170   49.0400  -23.8970 C   0  0  0  0  0  0  0  0  0  0  0  0
   -1.1960   50.3390  -25.5370 N   0  0  0  0  0  0  0  0  0  0  0  0
   -0.7320   49.7510  -26.2280 H   0  0  0  0  0  0  0  0  0  0  0  0
   -0.5330   51.5300  -25.1340 C   0  0  1  0  0  0  0  0  0  0  0  0
   -0.2620   52.5310  -25.9980 N   0  0  0  0  0  0  0  0  0  0  0  0
    0.3740   53.6730  -25.6000 C   0  0  0  0  0  0  0  0  0  0  0  0
   -0.5410   52.4320  -26.9750 H   0  0  0  0  0  0  0  0  0  0  0  0
    0.7430   53.7790  -24.2580 C   0  0  0  0  0  0  0  0  0  0  0  0
    1.5630   55.2120  -23.6580 Cl  0  0  0  0  0  0  0  0  0  0  0  0
    0.4670   52.7590  -23.3740 C   0  0  0  0  0  0  0  0  0  0  0  0
   -0.1600   51.6650  -23.8320 N   0  0  0  0  0  0  0  0  0  0  0  0
   -0.3660   50.9070  -23.1810 H   0  0  0  0  0  0  0  0  0  0  0  0
    0.8550   52.8880  -21.9740 C   0  0  0  0  0  0  0  0  0  0  0  0
    0.5980   52.0050  -20.9520 C   0  0  0  0  0  0  0  0  0  0  0  0
   -0.0720   50.8000  -20.9530 C   0  0  0  0  0  0  0  0  0  0  0  0
    1.1510   52.5510  -19.8570 N   0  0  0  0  0  0  0  0  0  0  0  0
   -0.1670   50.1310  -19.7410 C   0  0  0  0  0  0  0  0  0  0  0  0
    0.3910   50.6680  -18.5990 C   0  0  0  0  0  0  0  0  0  0  0  0
    1.0530   51.8900  -18.6720 C   0  0  0  0  0  0  0  0  0  0  0  0
    1.7250   53.6970  -20.1180 N   0  0  0  0  0  0  0  0  0  0  0  0
    1.5620   53.9360  -21.4220 C   0  0  0  0  0  0  0  0  0  0  0  0
    2.2100   54.2960  -19.4500 H   0  0  0  0  0  0  0  0  0  0  0  0
   -3.4620   50.0270  -27.1870 O   0  0  0  0  0  0  0  0  0  0  0  0
   -3.8790   49.0310  -28.1310 C   0  0  0  0  0  0  0  0  0  0  0  0
   -3.7710   48.9160  -21.6860 N   0  0  0  0  0  0  0  0  0  0  0  0
   -4.0320   50.0150  -20.7900 C   0  0  0  0  0  0  0  0  0  0  0  0
   -4.1260   51.1980  -21.1960 O   0  0  0  0  0  0  0  0  0  0  0  0
   -3.6450   47.9670  -21.3350 H   0  0  0  0  0  0  0  0  0  0  0  0
   -4.1790   49.6410  -19.3760 C   0  0  0  0  0  0  0  0  0  0  0  0
   -3.4360   50.2600  -18.4440 C   0  0  0  0  0  0  0  0  0  0  0  0
   -6.0650   48.5860  -23.3850 N   0  0  0  0  0  0  0  0  0  0  0  0
   -7.0620   49.4640  -22.8150 C   0  0  0  0  0  0  0  0  0  0  0  0
   -7.6250   48.8710  -21.5220 C   0  0  0  0  0  0  0  0  0  0  0  0
   -6.8200   47.7430  -21.1540 N   0  0  0  0  0  0  0  0  0  0  0  0
   -7.0290   47.2490  -19.8260 C   0  0  0  0  0  0  0  0  0  0  0  0
   -6.8200   46.6700  -22.1340 C   0  0  0  0  0  0  0  0  0  0  0  0
   -6.2960   47.1360  -23.4690 C   0  0  0  0  0  0  0  0  0  0  0  0
   -1.7075   49.7572  -23.1237 H   0  0  0  0  0  0  0  0  0  0  0  0
   -5.5906   49.1857  -25.8376 H   0  0  0  0  0  0  0  0  0  0  0  0
   -0.2776   54.4934  -25.8175 H   0  0  0  0  0  0  0  0  0  0  0  0
   -0.4843   50.4130  -21.8163 H   0  0  0  0  0  0  0  0  0  0  0  0
    0.2879   49.1730  -19.8832 H   0  0  0  0  0  0  0  0  0  0  0  0
    0.3181   50.1681  -17.6991 H   0  0  0  0  0  0  0  0  0  0  0  0
    1.4723   52.2974  -17.8216 H   0  0  0  0  0  0  0  0  0  0  0  0
    1.9069   54.7650  -21.9308 H   0  0  0  0  0  0  0  0  0  0  0  0
   -3.7315   49.3980  -29.1252 H   0  0  0  0  0  0  0  0  0  0  0  0
   -4.9154   48.8104  -27.9823 H   0  0  0  0  0  0  0  0  0  0  0  0
   -3.3012   48.1416  -27.9897 H   0  0  0  0  0  0  0  0  0  0  0  0
   -4.8497   48.9065  -19.1008 H   0  0  0  0  0  0  0  0  0  0  0  0
   -2.7661   50.9941  -18.7220 H   0  0  0  0  0  0  0  0  0  0  0  0
   -3.5350   50.0015  -17.4498 H   0  0  0  0  0  0  0  0  0  0  0  0
   -7.8582   49.5952  -23.5177 H   0  0  0  0  0  0  0  0  0  0  0  0
   -6.6058   50.4060  -22.5927 H   0  0  0  0  0  0  0  0  0  0  0  0
   -8.6362   48.5579  -21.6782 H   0  0  0  0  0  0  0  0  0  0  0  0
   -7.6085   49.6045  -20.7431 H   0  0  0  0  0  0  0  0  0  0  0  0
   -6.3850   46.4126  -19.6511 H   0  0  0  0  0  0  0  0  0  0  0  0
   -8.0485   46.9434  -19.7155 H   0  0  0  0  0  0  0  0  0  0  0  0
   -6.8097   48.0219  -19.1193 H   0  0  0  0  0  0  0  0  0  0  0  0
   -6.2008   45.8738  -21.7769 H   0  0  0  0  0  0  0  0  0  0  0  0
   -7.8289   46.3396  -22.2678 H   0  0  0  0  0  0  0  0  0  0  0  0
   -5.3780   46.6344  -23.6940 H   0  0  0  0  0  0  0  0  0  0  0  0
   -7.0015   46.9160  -24.2428 H   0  0  0  0  0  0  0  0  0  0  0  0
  1 30  1  0  0  0  0
  2  1  1  0  0  0  0
  2 43  1  0  0  0  0
  3  2  2  0  0  0  0
  4  5  2  0  0  0  0
  4  3  1  0  0  0  0
  5  6  1  0  0  0  0
  5 44  1  0  0  0  0
  6 36  1  0  0  0  0
  6  1  2  0  0  0  0
  7  3  1  0  0  0  0
  8  7  1  0  0  0  0
  9  7  1  1  0  0  0
  9 16  1  0  0  0  0
 10 11  1  0  0  0  0
 10  9  1  0  0  0  0
 11 13  1  0  0  0  0
 11 45  1  0  0  0  0
 12 10  1  0  0  0  0
 13 14  1  0  0  0  0
 13 15  2  0  0  0  0
 15 18  1  0  0  0  0
 16 15  1  0  0  0  0
 16 17  1  0  0  0  0
 18 26  2  0  0  0  0
 18 19  1  0  0  0  0
 19 21  1  0  0  0  0
 20 19  2  0  0  0  0
 20 22  1  0  0  0  0
 20 46  1  0  0  0  0
 21 24  1  0  0  0  0
 22 23  1  0  0  0  0
 22 47  1  0  0  0  0
 23 48  1  0  0  0  0
 24 23  2  0  0  0  0
 24 49  1  0  0  0  0
 25 21  1  0  0  0  0
 25 27  1  0  0  0  0
 26 25  1  0  0  0  0
 26 50  1  0  0  0  0
 28  4  1  0  0  0  0
 29 28  1  0  0  0  0
 29 51  1  0  0  0  0
 29 52  1  0  0  0  0
 29 53  1  0  0  0  0
 30 33  1  0  0  0  0
 30 31  1  0  0  0  0
 31 34  1  0  0  0  0
 32 31  2  0  0  0  0
 34 35  2  0  0  0  0
 34 54  1  0  0  0  0
 35 55  1  0  0  0  0
 35 56  1  0  0  0  0
 36 37  1  0  0  0  0
 37 38  1  0  0  0  0
 37 57  1  0  0  0  0
 37 58  1  0  0  0  0
 38 39  1  0  0  0  0
 38 59  1  0  0  0  0
 38 60  1  0  0  0  0
 39 40  1  0  0  0  0
 40 61  1  0  0  0  0
 40 62  1  0  0  0  0
 40 63  1  0  0  0  0
 41 39  1  0  0  0  0
 41 64  1  0  0  0  0
 41 65  1  0  0  0  0
 42 36  1  0  0  0  0
 42 41  1  0  0  0  0
 42 66  1  0  0  0  0
 42 67  1  0  0  0  0
M  END
>  <REMARK>
 VINA RESULT:      -7.4      2.643      6.874
  7 active torsions:
  status: ('A' for Active; 'I' for Inactive)
    1  A    between atoms: C_2  and  C_3 
       I    between atoms: C_3  and  N_5 
    2  A    between atoms: N_5  and  C_7 
    3  A    between atoms: C_9  and  N_10 
    4  A    between atoms: N_10  and  C_12 
    5  A    between atoms: C_18  and  C_19 
    6  A    between atoms: C_31  and  O_32 
    7  A    between atoms: C_35  and  N_36 

>  <TORSDO>
F 7

$$$$
resistance_project/docking/8faf60323ce63d5a/P00533_WT/docked/molecule_0002_out.pdbqt
 OpenBabel09142609523D

 67 71  0  0  1  0  0  0  0  0999 V2000
   -2.5840   50.7870  -19.0200 C   0  0  0  0  0  0  0  0  0  0  0  0
   -2.5980   50.4270  -17.6950 C   0  0  0  0  0  0  0  0  0  0  0  0
   -3.2130   49.2990  -17.1940 C   0  0  0  0  0  0  0  0  0  0  0  0
   -3.8630   48.4690  -18.0860 C   0  0  0  0  0  0  0  0  0  0  0  0
   -3.8780   48.7890  -19.4310 C   0  0  0  0  0  0  0  0  0  0  0  0
   -3.2500   49.9290  -19.8970 C   0  0  0  0  0  0  0  0  0  0  0  0
   -3.1410   49.0770  -15.8050 N   0  0  0  0  0  0  0  0  0  0  0  0
   -3.5100   48.1970  -15.4480 H   0  0  0  0  0  0  0  0  0  0  0  0
   -2.5920   49.9900  -14.8640 C   0  0  1  0  0  0  0  0  0  0  0  0
   -3.3670   50.7260  -14.0390 N   0  0  0  0  0  0  0  0  0  0  0  0
   -2.8290   51.5990  -13.1360 C   0  0  0  0  0  0  0  0  0  0  0  0
   -4.3810   50.6270  -14.0910 H   0  0  0  0  0  0  0  0  0  0  0  0
   -1.4390   51.7130  -13.0880 C   0  0  0  0  0  0  0  0  0  0  0  0
   -0.6610   52.8100  -11.9570 Cl  0  0  0  0  0  0  0  0  0  0  0  0
   -0.6460   50.9630  -13.9290 C   0  0  0  0  0  0  0  0  0  0  0  0
   -1.2400   50.1250  -14.7920 N   0  0  0  0  0  0  0  0  0  0  0  0
   -0.6570   49.5680  -15.4170 H   0  0  0  0  0  0  0  0  0  0  0  0
    0.8060   51.0900  -13.8630 C   0  0  0  0  0  0  0  0  0  0  0  0
    1.6390   51.6340  -14.8100 C   0  0  0  0  0  0  0  0  0  0  0  0
    1.3600   52.1890  -16.0420 C   0  0  0  0  0  0  0  0  0  0  0  0
    2.8780   51.5300  -14.3020 N   0  0  0  0  0  0  0  0  0  0  0  0
    2.4370   52.6600  -16.7800 C   0  0  0  0  0  0  0  0  0  0  0  0
    3.7200   52.5660  -16.2830 C   0  0  0  0  0  0  0  0  0  0  0  0
    3.9280   51.9940  -15.0320 C   0  0  0  0  0  0  0  0  0  0  0  0
    2.8770   50.9670  -13.1220 N   0  0  0  0  0  0  0  0  0  0  0  0
    1.6080   50.6820  -12.8180 C   0  0  0  0  0  0  0  0  0  0  0  0
    3.6940   50.7810  -12.5400 H   0  0  0  0  0  0  0  0  0  0  0  0
   -4.4800   47.3360  -17.5750 O   0  0  0  0  0  0  0  0  0  0  0  0
   -5.6210   46.8080  -18.2630 C   0  0  0  0  0  0  0  0  0  0  0  0
   -1.9420   51.9630  -19.5090 N   0  0  0  0  0  0  0  0  0  0  0  0
   -0.5080   51.9320  -19.6590 C   0  0  0  0  0  0  0  0  0  0  0  0
    0.1770   50.9400  -19.3140 O   0  0  0  0  0  0  0  0  0  0  0  0
   -2.4800   52.7970  -19.7450 H   0  0  0  0  0  0  0  0  0  0  0  0
    0.0800   53.1460  -20.2430 C   0  0  0  0  0  0  0  0  0  0  0  0
    1.4030   53.1990  -20.4730 C   0  0  0  0  0  0  0  0  0  0  0  0
   -3.3260   50.1870  -21.2950 N   0  0  0  0  0  0  0  0  0  0  0  0
   -4.3400   51.0210  -21.9010 C   0  0  0  0  0  0  0  0  0  0  0  0
   -4.8980   50.3590  -23.1630 C   0  0  0  0  0  0  0  0  0  0  0  0
   -4.4100   49.0120  -23.2190 N   0  0  0  0  0  0  0  0  0  0  0  0
   -5.0610   48.1640  -24.1730 C   0  0  0  0  0  0  0  0  0  0  0  0
   -2.9630   48.9080  -23.3050 C   0  0  0  0  0  0  0  0  0  0  0  0
   -2.2890   49.5440  -22.1160 C   0  0  0  0  0  0  0  0  0  0  0  0
   -2.1133   51.0452  -17.0258 H   0  0  0  0  0  0  0  0  0  0  0  0
   -4.3648   48.1682  -20.0963 H   0  0  0  0  0  0  0  0  0  0  0  0
   -3.1578   51.2954  -12.1641 H   0  0  0  0  0  0  0  0  0  0  0  0
    0.3937   52.2511  -16.3988 H   0  0  0  0  0  0  0  0  0  0  0  0
    2.4282   52.1287  -17.7087 H   0  0  0  0  0  0  0  0  0  0  0  0
    4.5188   52.9169  -16.8342 H   0  0  0  0  0  0  0  0  0  0  0  0
    4.8859   51.9211  -14.6550 H   0  0  0  0  0  0  0  0  0  0  0  0
    1.2826   50.2324  -11.9480 H   0  0  0  0  0  0  0  0  0  0  0  0
   -5.9785   45.9411  -17.7477 H   0  0  0  0  0  0  0  0  0  0  0  0
   -5.3433   46.5404  -19.2611 H   0  0  0  0  0  0  0  0  0  0  0  0
   -6.3930   47.5483  -18.2938 H   0  0  0  0  0  0  0  0  0  0  0  0
   -0.5198   53.9531  -20.4751 H   0  0  0  0  0  0  0  0  0  0  0  0
    2.0001   52.3902  -20.2398 H   0  0  0  0  0  0  0  0  0  0  0  0
    1.8219   54.0485  -20.8828 H   0  0  0  0  0  0  0  0  0  0  0  0
   -5.1357   51.1715  -21.2016 H   0  0  0  0  0  0  0  0  0  0  0  0
   -3.9005   51.9590  -22.1689 H   0  0  0  0  0  0  0  0  0  0  0  0
   -5.9674   50.3550  -23.1267 H   0  0  0  0  0  0  0  0  0  0  0  0
   -4.5859   50.9003  -24.0316 H   0  0  0  0  0  0  0  0  0  0  0  0
   -4.6266   47.1868  -24.1365 H   0  0  0  0  0  0  0  0  0  0  0  0
   -4.9391   48.5721  -25.1546 H   0  0  0  0  0  0  0  0  0  0  0  0
   -6.1034   48.0998  -23.9403 H   0  0  0  0  0  0  0  0  0  0  0  0
   -2.6319   49.3996  -24.1958 H   0  0  0  0  0  0  0  0  0  0  0  0
   -2.7026   47.8703  -23.3217 H   0  0  0  0  0  0  0  0  0  0  0  0
   -1.5828   50.2762  -22.4478 H   0  0  0  0  0  0  0  0  0  0  0  0
   -1.7685   48.8042  -21.5444 H   0  0  0  0  0  0  0  0  0  0  0  0
  1  2  2  0  0  0  0
  2  3  1  0  0  0  0
  2 43  1  0  0  0  0
  3  7  1  0  0  0  0
  4 28  1  0  0  0  0
  4  3  2  0  0  0  0
  5  4  1  0  0  0  0
  5 44  1  0  0  0  0
  6  5  2  0  0  0  0
  6  1  1  0  0  0  0
  7  8  1  0  0  0  0
  9  7  1  1  0  0  0
  9 16  1  0  0  0  0
  9 10  1  0  0  0  0
 10 11  1  0  0  0  0
 11 13  1  0  0  0  0
 11 45  1  0  0  0  0
 12 10  1  0  0  0  0
 13 14  1  0  0  0  0
 15 18  1  0  0  0  0
 15 13  2  0  0  0  0
 16 15  1  0  0  0  0
 17 16  1  0  0  0  0
 18 26  2  0  0  0  0
 19 21  1  0  0  0  0
 19 18  1  0  0  0  0
 20 19  2  0  0  0  0
 20 46  1  0  0  0  0
 21 25  1  0  0  0  0
 22 23  1  0  0  0  0
 22 20  1  0  0  0  0
 22 47  1  0  0  0  0
 23 24  2  0  0  0  0
 23 48  1  0  0  0  0
 24 21  1  0  0  0  0
 24 49  1  0  0  0  0
 25 26  1  0  0  0  0
 25 27  1  0  0  0  0
 26 50  1  0  0  0  0
 29 28  1  0  0  0  0
 29 51  1  0  0  0  0
 29 52  1  0  0  0  0
 29 53  1  0  0  0  0
 30  1  1  0  0  0  0
 31 30  1  0  0  0  0
 31 32  2  0  0  0  0
 33 30  1  0  0  0  0
 34 31  1  0  0  0  0
 34 54  1  0  0  0  0
 35 34  2  0  0  0  0
 35 55  1  0  0  0  0
 35 56  1  0  0  0  0
 36  6  1  0  0  0  0
 37 36  1  0  0  0  0
 37 57  1  0  0  0  0
 37 58  1  0  0  0  0
 38 37  1  0  0  0  0
 38 59  1  0  0  0  0
 38 60  1  0  0  0  0
 39 38  1  0  0  0  0
 40 39  1  0  0  0  0
 40 61  1  0  0  0  0
 40 62  1  0  0  0  0
 40 63  1  0  0  0  0
 41 39  1  0  0  0  0
 41 42  1  0  0  0  0
 41 64  1  0  0  0  0
 41 65  1  0  0  0  0
 42 36  1  0  0  0  0
 42 66  1  0  0  0  0
 42 67  1  0  0  0  0
M  END
>  <REMARK>
 VINA RESULT:      -7.3      3.719      8.503
  7 active torsions:
  status: ('A' for Active; 'I' for Inactive)
    1  A    between atoms: C_2  and  C_3 
       I    between atoms: C_3  and  N_5 
    2  A    between atoms: N_5  and  C_7 
    3  A    between atoms: C_9  and  N_10 
    4  A    between atoms: N_10  and  C_12 
    5  A    between atoms: C_18  and  C_19 
    6  A    between atoms: C_31  and  O_32 
    7  A    between atoms: C_35  and  N_36 

>  <TORSDO>
F 7

$$$$
resistance_project/docking/8faf60323ce63d5a/P00533_WT/docked/molecule_0002_out.pdbqt
 OpenBabel09142609523D

 67 71  0  0  1  0  0  0  0  0999 V2000
   -1.6560   50.1050  -16.4470 C   0  0  0  0  0  0  0  0  0  0  0  0
   -2.4280   50.3890  -17.5450 C   0  0  0  0  0  0  0  0  0  0  0  0
   -1.9600   50.9700  -18.7060 C   0  0  0  0  0  0  0  0  0  0  0  0
   -0.6180   51.2900  -18.7710 C   0  0  0  0  0  0  0  0  0  0  0  0
    0.2010   51.0230  -17.6890 C   0  0  0  0  0  0  0  0  0  0  0  0
   -0.3040   50.4400  -16.5410 C   0  0  0  0  0  0  0  0  0  0  0  0
   -2.8860   51.2030  -19.7400 N   0  0  0  0  0  0  0  0  0  0  0  0
   -3.6100   51.9020  -19.5770 H   0  0  0  0  0  0  0  0  0  0  0  0
   -2.8860   50.5370  -20.9950 C   0  0  1  0  0  0  0  0  0  0  0  0
   -3.1620   49.2200  -21.1120 N   0  0  0  0  0  0  0  0  0  0  0  0
   -3.1620   48.5890  -22.3230 C   0  0  0  0  0  0  0  0  0  0  0  0
   -3.3780   48.6820  -20.2720 H   0  0  0  0  0  0  0  0  0  0  0  0
   -2.8640   49.3510  -23.4550 C   0  0  0  0  0  0  0  0  0  0  0  0
   -2.8410   48.6230  -25.0530 Cl  0  0  0  0  0  0  0  0  0  0  0  0
   -2.5810   50.6950  -23.3390 C   0  0  0  0  0  0  0  0  0  0  0  0
   -2.5990   51.2510  -22.1180 N   0  0  0  0  0  0  0  0  0  0  0  0
   -2.3900   52.2450  -22.0280 H   0  0  0  0  0  0  0  0  0  0  0  0
   -2.2760   51.4780  -24.5310 C   0  0  0  0  0  0  0  0  0  0  0  0
   -1.0350   51.8240  -25.0070 C   0  0  0  0  0  0  0  0  0  0  0  0
    0.2240   51.5480  -24.5170 C   0  0  0  0  0  0  0  0  0  0  0  0
   -1.2620   52.5370  -26.1220 N   0  0  0  0  0  0  0  0  0  0  0  0
    1.3030   52.0460  -25.2340 C   0  0  0  0  0  0  0  0  0  0  0  0
    1.1000   52.7820  -26.3830 C   0  0  0  0  0  0  0  0  0  0  0  0
   -0.2000   53.0220  -26.8190 C   0  0  0  0  0  0  0  0  0  0  0  0
   -2.5400   52.6600  -26.3720 N   0  0  0  0  0  0  0  0  0  0  0  0
   -3.1980   52.0140  -25.4060 C   0  0  0  0  0  0  0  0  0  0  0  0
   -2.9560   53.1550  -27.1600 H   0  0  0  0  0  0  0  0  0  0  0  0
   -0.1540   51.8730  -19.9410 O   0  0  0  0  0  0  0  0  0  0  0  0
    0.3200   53.2260  -19.8910 C   0  0  0  0  0  0  0  0  0  0  0  0
   -2.1690   49.5070  -15.2580 N   0  0  0  0  0  0  0  0  0  0  0  0
   -2.8470   50.3610  -14.3140 C   0  0  0  0  0  0  0  0  0  0  0  0
   -2.9350   51.6010  -14.4820 O   0  0  0  0  0  0  0  0  0  0  0  0
   -2.0590   48.5090  -15.0810 H   0  0  0  0  0  0  0  0  0  0  0  0
   -3.4210   49.6690  -13.1520 C   0  0  0  0  0  0  0  0  0  0  0  0
   -3.3340   48.3310  -13.0650 C   0  0  0  0  0  0  0  0  0  0  0  0
    0.6090   50.2120  -15.4720 N   0  0  0  0  0  0  0  0  0  0  0  0
    1.2670   48.9460  -15.2400 C   0  0  0  0  0  0  0  0  0  0  0  0
    1.2270   48.5850  -13.7530 C   0  0  0  0  0  0  0  0  0  0  0  0
    0.3430   49.4990  -13.0900 N   0  0  0  0  0  0  0  0  0  0  0  0
   -0.0330   49.1280  -11.7580 C   0  0  0  0  0  0  0  0  0  0  0  0
    0.7610   50.8880  -13.1650 C   0  0  0  0  0  0  0  0  0  0  0  0
    0.8550   51.3640  -14.5920 C   0  0  0  0  0  0  0  0  0  0  0  0
   -3.4311   50.1510  -17.4994 H   0  0  0  0  0  0  0  0  0  0  0  0
    1.2036   51.2623  -17.7390 H   0  0  0  0  0  0  0  0  0  0  0  0
   -2.4418   47.7994  -22.2713 H   0  0  0  0  0  0  0  0  0  0  0  0
    0.3580   50.9958  -23.6555 H   0  0  0  0  0  0  0  0  0  0  0  0
    1.8548   52.6708  -24.5632 H   0  0  0  0  0  0  0  0  0  0  0  0
    1.9041   53.1511  -26.9142 H   0  0  0  0  0  0  0  0  0  0  0  0
   -0.3589   53.5721  -27.6776 H   0  0  0  0  0  0  0  0  0  0  0  0
   -4.2236   51.9299  -25.3273 H   0  0  0  0  0  0  0  0  0  0  0  0
    0.6408   53.5278  -20.8662 H   0  0  0  0  0  0  0  0  0  0  0  0
    1.1420   53.2910  -19.2091 H   0  0  0  0  0  0  0  0  0  0  0  0
   -0.4692   53.8684  -19.5604 H   0  0  0  0  0  0  0  0  0  0  0  0
   -3.8886   50.2079  -12.4064 H   0  0  0  0  0  0  0  0  0  0  0  0
   -2.8658   47.7947  -13.8121 H   0  0  0  0  0  0  0  0  0  0  0  0
   -3.7354   47.8396  -12.2511 H   0  0  0  0  0  0  0  0  0  0  0  0
    2.2863   49.0155  -15.5581 H   0  0  0  0  0  0  0  0  0  0  0  0
    0.7584   48.1852  -15.7944 H   0  0  0  0  0  0  0  0  0  0  0  0
    2.2088   48.6643  -13.3352 H   0  0  0  0  0  0  0  0  0  0  0  0
    0.8800   47.5807  -13.6273 H   0  0  0  0  0  0  0  0  0  0  0  0
   -0.3334   48.1011  -11.7451 H   0  0  0  0  0  0  0  0  0  0  0  0
   -0.8469   49.7419  -11.4331 H   0  0  0  0  0  0  0  0  0  0  0  0
    0.8006   49.2640  -11.1011 H   0  0  0  0  0  0  0  0  0  0  0  0
    0.0493   51.4932  -12.6434 H   0  0  0  0  0  0  0  0  0  0  0  0
    1.7311   50.9695  -12.7209 H   0  0  0  0  0  0  0  0  0  0  0  0
    0.1207   52.1213  -14.7713 H   0  0  0  0  0  0  0  0  0  0  0  0
    1.8231   51.7778  -14.7830 H   0  0  0  0  0  0  0  0  0  0  0  0
  1 30  1  0  0  0  0
  2  1  2  0  0  0  0
  2 43  1  0  0  0  0
  3  2  1  0  0  0  0
  4  3  2  0  0  0  0
  4  5  1  0  0  0  0
  5  6  2  0  0  0  0
  5 44  1  0  0  0  0
  6  1  1  0  0  0  0
  6 36  1  0  0  0  0
  7  8  1  0  0  0  0
  7  3  1  0  0  0  0
  9  7  1  6  0  0  0
 10  9  1  0  0  0  0
 10 12  1  0  0  0  0
 11 10  1  0  0  0  0
 11 45  1  0  0  0  0
 13 15  2  0  0  0  0
 13 11  1  0  0  0  0
 14 13  1  0  0  0  0
 15 16  1  0  0  0  0
 16 17  1  0  0  0  0
 16  9  1  0  0  0  0
 18 15  1  0  0  0  0
 19 18  1  0  0  0  0
 19 20  2  0  0  0  0
 20 46  1  0  0  0  0
 21 19  1  0  0  0  0
 22 20  1  0  0  0  0
 22 47  1  0  0  0  0
 23 22  1  0  0  0  0
 23 48  1  0  0  0  0
 24 23  2  0  0  0  0
 24 21  1  0  0  0  0
 24 49  1  0  0  0  0
 25 21  1  0  0  0  0
 25 26  1  0  0  0  0
 26 18  2  0  0  0  0
 26 50  1  0  0  0  0
 27 25  1  0  0  0  0
 28 29  1  0  0  0  0
 28  4  1  0  0  0  0
 29 51  1  0  0  0  0
 29 52  1  0  0  0  0
 29 53  1  0  0  0  0
 30 33  1  0  0  0  0
 30 31  1  0  0  0  0
 31 34  1  0  0  0  0
 32 31  2  0  0  0  0
 34 35  2  0  0  0  0
 34 54  1  0  0  0  0
 35 55  1  0  0  0  0
 35 56  1  0  0  0  0
 36 37  1  0  0  0  0
 36 42  1  0  0  0  0
 37 38  1  0  0  0  0
 37 57  1  0  0  0  0
 37 58  1  0  0  0  0
 38 39  1  0  0  0  0
 38 59  1  0  0  0  0
 38 60  1  0  0  0  0
 39 40  1  0  0  0  0
 40 61  1  0  0  0  0
 40 62  1  0  0  0  0
 40 63  1  0  0  0  0
 41 39  1  0  0  0  0
 41 64  1  0  0  0  0
 41 65  1  0  0  0  0
 42 41  1  0  0  0  0
 42 66  1  0  0  0  0
 42 67  1  0  0  0  0
M  END
>  <REMARK>
 VINA RESULT:      -7.3      2.177      4.158
  7 active torsions:
  status: ('A' for Active; 'I' for Inactive)
    1  A    between atoms: C_2  and  C_3 
       I    between atoms: C_3  and  N_5 
    2  A    between atoms: N_5  and  C_7 
    3  A    between atoms: C_9  and  N_10 
    4  A    between atoms: N_10  and  C_12 
    5  A    between atoms: C_18  and  C_19 
    6  A    between atoms: C_31  and  O_32 
    7  A    between atoms: C_35  and  N_36 

>  <TORSDO>
F 7

$$$$
resistance_project/docking/8faf60323ce63d5a/P00533_WT/docked/molecule_0002_out.pdbqt
 OpenBabel09142609523D

 67 71  0  0  1  0  0  0  0  0999 V2000
   -1.4420   50.4670  -18.5690 C   0  0  0  0  0  0  0  0  0  0  0  0
   -0.5320   50.9120  -17.6440 C   0  0  0  0  0  0  0  0  0  0  0  0
    0.5000   51.7870  -17.9140 C   0  0  0  0  0  0  0  0  0  0  0  0
    0.6300   52.2500  -19.2090 C   0  0  0  0  0  0  0  0  0  0  0  0
   -0.2630   51.8300  -20.1770 C   0  0  0  0  0  0  0  0  0  0  0  0
   -1.2860   50.9520  -19.8690 C   0  0  0  0  0  0  0  0  0  0  0  0
    1.3540   52.1390  -16.8520 N   0  0  0  0  0  0  0  0  0  0  0  0
    2.0890   52.8190  -17.0430 H   0  0  0  0  0  0  0  0  0  0  0  0
    1.2680   51.6180  -15.5330 C   0  0  2  0  0  0  0  0  0  0  0  0
    1.8900   50.4770  -15.1670 N   0  0  0  0  0  0  0  0  0  0  0  0
    1.8030   49.9850  -13.8960 C   0  0  0  0  0  0  0  0  0  0  0  0
    2.4420   49.9690  -15.8600 H   0  0  0  0  0  0  0  0  0  0  0  0
    1.0410   50.7020  -12.9710 C   0  0  0  0  0  0  0  0  0  0  0  0
    0.8750   50.1440  -11.3130 Cl  0  0  0  0  0  0  0  0  0  0  0  0
    0.4050   51.8660  -13.3410 C   0  0  0  0  0  0  0  0  0  0  0  0
    0.5330   52.2920  -14.6070 N   0  0  0  0  0  0  0  0  0  0  0  0
    0.0630   53.1540  -14.8850 H   0  0  0  0  0  0  0  0  0  0  0  0
   -0.3830   52.6060  -12.3610 C   0  0  0  0  0  0  0  0  0  0  0  0
   -1.7310   52.4950  -12.1210 C   0  0  0  0  0  0  0  0  0  0  0  0
   -2.6870   51.6940  -12.7090 C   0  0  0  0  0  0  0  0  0  0  0  0
   -1.9930   53.3690  -11.1350 N   0  0  0  0  0  0  0  0  0  0  0  0
   -3.9870   51.8150  -12.2390 C   0  0  0  0  0  0  0  0  0  0  0  0
   -4.2860   52.7050  -11.2280 C   0  0  0  0  0  0  0  0  0  0  0  0
   -3.2710   53.4820  -10.6800 C   0  0  0  0  0  0  0  0  0  0  0  0
   -0.9200   54.0090  -10.7500 N   0  0  0  0  0  0  0  0  0  0  0  0
    0.0980   53.5600  -11.4880 C   0  0  0  0  0  0  0  0  0  0  0  0
   -0.8690   54.7180  -10.0190 H   0  0  0  0  0  0  0  0  0  0  0  0
    1.6690   53.1310  -19.4740 O   0  0  0  0  0  0  0  0  0  0  0  0
    1.9820   53.4290  -20.8410 C   0  0  0  0  0  0  0  0  0  0  0  0
   -2.4970   49.5580  -18.2610 N   0  0  0  0  0  0  0  0  0  0  0  0
   -2.2580   48.1520  -18.4770 C   0  0  0  0  0  0  0  0  0  0  0  0
   -1.1910   47.7270  -18.9800 O   0  0  0  0  0  0  0  0  0  0  0  0
   -3.3910   49.8920  -17.9010 H   0  0  0  0  0  0  0  0  0  0  0  0
   -3.3550   47.2660  -18.0630 C   0  0  0  0  0  0  0  0  0  0  0  0
   -3.0870   46.1720  -17.3320 C   0  0  0  0  0  0  0  0  0  0  0  0
   -2.1510   50.5630  -20.9310 N   0  0  0  0  0  0  0  0  0  0  0  0
   -1.7630   49.6560  -21.9880 C   0  0  0  0  0  0  0  0  0  0  0  0
   -2.2230   50.1880  -23.3470 C   0  0  0  0  0  0  0  0  0  0  0  0
   -2.6870   51.5330  -23.1740 N   0  0  0  0  0  0  0  0  0  0  0  0
   -2.8810   52.2750  -24.3840 C   0  0  0  0  0  0  0  0  0  0  0  0
   -3.8230   51.6580  -22.2770 C   0  0  0  0  0  0  0  0  0  0  0  0
   -3.5000   51.1480  -20.8960 C   0  0  0  0  0  0  0  0  0  0  0  0
   -0.6262   50.5673  -16.6759 H   0  0  0  0  0  0  0  0  0  0  0  0
   -0.1648   52.1769  -21.1440 H   0  0  0  0  0  0  0  0  0  0  0  0
    2.7987   49.9224  -13.5091 H   0  0  0  0  0  0  0  0  0  0  0  0
   -2.4464   51.0339  -13.4649 H   0  0  0  0  0  0  0  0  0  0  0  0
   -4.2785   50.8462  -11.8907 H   0  0  0  0  0  0  0  0  0  0  0  0
   -5.2541   52.7933  -10.8815 H   0  0  0  0  0  0  0  0  0  0  0  0
   -3.4882   54.1490   -9.9230 H   0  0  0  0  0  0  0  0  0  0  0  0
    1.0787   53.8735  -11.4174 H   0  0  0  0  0  0  0  0  0  0  0  0
    2.7998   54.1181  -20.8776 H   0  0  0  0  0  0  0  0  0  0  0  0
    1.1275   53.8640  -21.3159 H   0  0  0  0  0  0  0  0  0  0  0  0
    2.2523   52.5273  -21.3497 H   0  0  0  0  0  0  0  0  0  0  0  0
   -4.3270   47.4837  -18.3329 H   0  0  0  0  0  0  0  0  0  0  0  0
   -2.1142   45.9565  -17.0634 H   0  0  0  0  0  0  0  0  0  0  0  0
   -3.8539   45.5467  -17.0388 H   0  0  0  0  0  0  0  0  0  0  0  0
   -0.6978   49.5549  -21.9918 H   0  0  0  0  0  0  0  0  0  0  0  0
   -2.2233   48.7058  -21.8147 H   0  0  0  0  0  0  0  0  0  0  0  0
   -1.4046   50.1741  -24.0361 H   0  0  0  0  0  0  0  0  0  0  0  0
   -3.0100   49.5750  -23.7340 H   0  0  0  0  0  0  0  0  0  0  0  0
   -2.0253   52.1575  -25.0155 H   0  0  0  0  0  0  0  0  0  0  0  0
   -3.0121   53.3109  -24.1501 H   0  0  0  0  0  0  0  0  0  0  0  0
   -3.7505   51.9109  -24.8902 H   0  0  0  0  0  0  0  0  0  0  0  0
   -4.6413   51.0936  -22.6727 H   0  0  0  0  0  0  0  0  0  0  0  0
   -4.0751   52.6950  -22.1997 H   0  0  0  0  0  0  0  0  0  0  0  0
   -4.2117   50.4024  -20.6087 H   0  0  0  0  0  0  0  0  0  0  0  0
   -3.5399   51.9475  -20.1860 H   0  0  0  0  0  0  0  0  0  0  0  0
  1 30  1  0  0  0  0
  1  2  2  0  0  0  0
  2 43  1  0  0  0  0
  3  2  1  0  0  0  0
  3  7  1  0  0  0  0
  4  3  2  0  0  0  0
  5  6  2  0  0  0  0
  5  4  1  0  0  0  0
  5 44  1  0  0  0  0
  6  1  1  0  0  0  0
  8  7  1  0  0  0  0
  9  7  1  6  0  0  0
  9 10  1  0  0  0  0
  9 16  1  0  0  0  0
 10 11  1  0  0  0  0
 11 13  1  0  0  0  0
 11 45  1  0  0  0  0
 12 10  1  0  0  0  0
 13 14  1  0  0  0  0
 15 13  2  0  0  0  0
 15 18  1  0  0  0  0
 16 15  1  0  0  0  0
 17 16  1  0  0  0  0
 18 19  1  0  0  0  0
 18 26  2  0  0  0  0
 19 21  1  0  0  0  0
 20 22  1  0  0  0  0
 20 19  2  0  0  0  0
 20 46  1  0  0  0  0
 21 25  1  0  0  0  0
 21 24  1  0  0  0  0
 22 23  1  0  0  0  0
 22 47  1  0  0  0  0
 23 24  2  0  0  0  0
 23 48  1  0  0  0  0
 24 49  1  0  0  0  0
 25 27  1  0  0  0  0
 26 25  1  0  0  0  0
 26 50  1  0  0  0  0
 28  4  1  0  0  0  0
 29 28  1  0  0  0  0
 29 51  1  0  0  0  0
 29 52  1  0  0  0  0
 29 53  1  0  0  0  0
 30 33  1  0  0  0  0
 31 30  1  0  0  0  0
 31 34  1  0  0  0  0
 32 31  2  0  0  0  0
 34 35  2  0  0  0  0
 34 54  1  0  0  0  0
 35 55  1  0  0  0  0
 35 56  1  0  0  0  0
 36 42  1  0  0  0  0
 36  6  1  0  0  0  0
 37 36  1  0  0  0  0
 37 57  1  0  0  0  0
 37 58  1  0  0  0  0
 38 39  1  0  0  0  0
 38 37  1  0  0  0  0
 38 59  1  0  0  0  0
 38 60  1  0  0  0  0
 39 41  1  0  0  0  0
 40 39  1  0  0  0  0
 40 61  1  0  0  0  0
 40 62  1  0  0  0  0
 40 63  1  0  0  0  0
 41 42  1  0  0  0  0
 41 64  1  0  0  0  0
 41 65  1  0  0  0  0
 42 66  1  0  0  0  0
 42 67  1  0  0  0  0
M  END
>  <REMARK>
 VINA RESULT:      -7.2      4.047     10.182
  7 active torsions:
  status: ('A' for Active; 'I' for Inactive)
    1  A    between atoms: C_2  and  C_3 
       I    between atoms: C_3  and  N_5 
    2  A    between atoms: N_5  and  C_7 
    3  A    between atoms: C_9  and  N_10 
    4  A    between atoms: N_10  and  C_12 
    5  A    between atoms: C_18  and  C_19 
    6  A    between atoms: C_31  and  O_32 
    7  A    between atoms: C_35  and  N_36 

>  <TORSDO>
F 7

$$$$
