resistance_project/docking/8faf60323ce63d5a/P00533_WT/docked/molecule_0005_out.pdbqt
 OpenBabel09142609533D

 71 75  0  0  1  0  0  0  0  0999 V2000
   -0.6890   49.3320  -18.1880 C   0  0  0  0  0  0  0  0  0  0  0  0
   -0.7080   49.0370  -19.5290 C   0  0  0  0  0  0  0  0  0  0  0  0
   -0.0290   49.9030  -20.3730 C   0  0  0  0  0  0  0  0  0  0  0  0
    0.6200   50.9910  -19.8660 C   0  0  0  0  0  0  0  0  0  0  0  0
    1.2710   51.8220  -20.6780 N   0  0  0  0  0  0  0  0  0  0  0  0
    1.2680   51.6200  -21.6780 H   0  0  0  0  0  0  0  0  0  0  0  0
    1.9310   52.9120  -20.2510 C   0  0  0  0  0  0  0  0  0  0  0  0
    1.9190   53.1560  -18.9260 N   0  0  0  0  0  0  0  0  0  0  0  0
    2.4140   53.9790  -18.5840 H   0  0  0  0  0  0  0  0  0  0  0  0
    1.2900   52.3780  -18.0300 C   0  0  0  0  0  0  0  0  0  0  0  0
    0.6260   51.2690  -18.5130 C   0  0  0  0  0  0  0  0  0  0  0  0
   -0.0390   50.4280  -17.6540 C   0  0  0  0  0  0  0  0  0  0  0  0
   -1.3840   47.9250  -19.9440 O   0  0  0  0  0  0  0  0  0  0  0  0
   -1.5370   47.4730  -21.2580 C   0  0  0  0  0  0  0  0  0  0  0  0
   -2.8350   47.9690  -21.8870 C   0  0  2  0  0  0  0  0  0  0  0  0
   -2.4520   49.0780  -22.8270 C   0  0  0  0  0  0  0  0  0  0  0  0
   -3.5860   49.6280  -23.5020 N   0  0  0  0  0  0  0  0  0  0  0  0
   -4.8420   49.4810  -22.8400 C   0  0  0  0  0  0  0  0  0  0  0  0
   -4.7210   49.4200  -21.3600 C   0  0  0  0  0  0  0  0  0  0  0  0
   -5.5050   50.0500  -20.5840 O   0  0  0  0  0  0  0  0  0  0  0  0
   -3.6570   48.6040  -20.8460 N   0  0  0  0  0  0  0  0  0  0  0  0
   -3.4870   48.4760  -19.8490 H   0  0  0  0  0  0  0  0  0  0  0  0
   -3.3310   51.0170  -23.8490 C   0  0  0  0  0  0  0  0  0  0  0  0
   -1.9290   51.3550  -23.5290 C   0  0  0  0  0  0  0  0  0  0  0  0
   -0.9840   51.6290  -24.4120 C   0  0  0  0  0  0  0  0  0  0  0  0
   -1.2900   51.6660  -25.8690 C   0  0  0  0  0  0  0  0  0  0  0  0
    0.3860   51.8940  -23.8710 C   0  0  0  0  0  0  0  0  0  0  0  0
   -0.7650   52.9690  -26.4260 C   0  0  0  0  0  0  0  0  0  0  0  0
    0.1330   53.7110  -25.4780 C   0  0  0  0  0  0  0  0  0  0  0  0
    1.1440   52.8140  -24.8040 C   0  0  0  0  0  0  0  0  0  0  0  0
   -1.3610   48.4870  -17.2920 O   0  0  0  0  0  0  0  0  0  0  0  0
   -2.6380   48.7640  -16.8080 C   0  0  0  0  0  0  0  0  0  0  0  0
    1.2810   52.6410  -16.6320 N   0  0  0  0  0  0  0  0  0  0  0  0
    0.4680   53.0620  -16.1820 H   0  0  0  0  0  0  0  0  0  0  0  0
    2.4410   52.3000  -15.8790 C   0  0  0  0  0  0  0  0  0  0  0  0
    2.3840   51.4920  -14.7760 C   0  0  0  0  0  0  0  0  0  0  0  0
    3.4960   51.1400  -14.0220 C   0  0  0  0  0  0  0  0  0  0  0  0
    3.3840   50.1040  -12.6150 Cl  0  0  0  0  0  0  0  0  0  0  0  0
    4.7130   51.6460  -14.4270 C   0  0  0  0  0  0  0  0  0  0  0  0
    6.1720   51.2550  -13.5340 Cl  0  0  0  0  0  0  0  0  0  0  0  0
    4.8340   52.4690  -15.5360 C   0  0  0  0  0  0  0  0  0  0  0  0
    3.6820   52.7880  -16.2560 C   0  0  0  0  0  0  0  0  0  0  0  0
   -0.0145   49.7237  -21.3892 H   0  0  0  0  0  0  0  0  0  0  0  0
    1.5008   53.7614  -20.7392 H   0  0  0  0  0  0  0  0  0  0  0  0
   -0.7730   51.0137  -17.1411 H   0  0  0  0  0  0  0  0  0  0  0  0
   -0.7132   47.8260  -21.8426 H   0  0  0  0  0  0  0  0  0  0  0  0
   -1.5680   46.4036  -21.2375 H   0  0  0  0  0  0  0  0  0  0  0  0
   -3.3569   47.1632  -22.3595 H   0  0  0  0  0  0  0  0  0  0  0  0
   -1.9737   49.8545  -22.2674 H   0  0  0  0  0  0  0  0  0  0  0  0
   -1.7948   48.6703  -23.5664 H   0  0  0  0  0  0  0  0  0  0  0  0
   -5.3022   48.5772  -23.1810 H   0  0  0  0  0  0  0  0  0  0  0  0
   -5.4282   50.3446  -23.0754 H   0  0  0  0  0  0  0  0  0  0  0  0
   -3.5026   51.1605  -24.8954 H   0  0  0  0  0  0  0  0  0  0  0  0
   -3.9872   51.6506  -23.2898 H   0  0  0  0  0  0  0  0  0  0  0  0
   -1.6649   51.3793  -22.5317 H   0  0  0  0  0  0  0  0  0  0  0  0
   -0.8140   50.8434  -26.3606 H   0  0  0  0  0  0  0  0  0  0  0  0
   -2.3456   51.5934  -26.0281 H   0  0  0  0  0  0  0  0  0  0  0  0
    0.3036   52.3550  -22.9089 H   0  0  0  0  0  0  0  0  0  0  0  0
    0.9147   50.9676  -23.7864 H   0  0  0  0  0  0  0  0  0  0  0  0
   -1.5991   53.5961  -26.6623 H   0  0  0  0  0  0  0  0  0  0  0  0
   -0.1793   52.7277  -27.2883 H   0  0  0  0  0  0  0  0  0  0  0  0
   -0.4714   54.1711  -24.7244 H   0  0  0  0  0  0  0  0  0  0  0  0
    0.6758   54.4348  -26.0493 H   0  0  0  0  0  0  0  0  0  0  0  0
    1.8422   53.4039  -24.2477 H   0  0  0  0  0  0  0  0  0  0  0  0
    1.6890   52.2481  -25.5304 H   0  0  0  0  0  0  0  0  0  0  0  0
   -2.9446   47.9834  -16.1435 H   0  0  0  0  0  0  0  0  0  0  0  0
   -3.3242   48.8255  -17.6267 H   0  0  0  0  0  0  0  0  0  0  0  0
   -2.6258   49.6958  -16.2822 H   0  0  0  0  0  0  0  0  0  0  0  0
    1.4638   51.1238  -14.4885 H   0  0  0  0  0  0  0  0  0  0  0  0
    5.7546   52.8372  -15.8224 H   0  0  0  0  0  0  0  0  0  0  0  0
    3.7556   53.3987  -17.0846 H   0  0  0  0  0  0  0  0  0  0  0  0
  1 12  1  0  0  0  0
  1 31  1  0  0  0  0
  2  1  2  0  0  0  0
  3  4  2  0  0  0  0
  3  2  1  0  0  0  0
  3 43  1  0  0  0  0
  4 11  1  0  0  0  0
  5  7  1  0  0  0  0
  5  4  1  0  0  0  0
  6  5  1  0  0  0  0
  7  8  1  0  0  0  0
  7 44  1  0  0  0  0
  8  9  1  0  0  0  0
  8 10  1  0  0  0  0
 10 33  1  0  0  0  0
 11 10  2  0  0  0  0
 11 12  1  0  0  0  0
 12 45  1  0  0  0  0
 13  2  1  0  0  0  0
 14 13  1  0  0  0  0
 14 46  1  0  0  0  0
 14 47  1  0  0  0  0
 15 14  1  0  0  0  0
 15 21  1  0  0  0  0
 15 48  1  6  0  0  0
 16 15  1  0  0  0  0
 16 49  1  0  0  0  0
 16 50  1  0  0  0  0
 17 18  1  0  0  0  0
 17 16  1  0  0  0  0
 18 19  1  0  0  0  0
 18 51  1  0  0  0  0
 18 52  1  0  0  0  0
 19 21  1  0  0  0  0
 19 20  2  0  0  0  0
 21 22  1  0  0  0  0
 23 24  1  0  0  0  0
 23 17  1  0  0  0  0
 23 53  1  0  0  0  0
 23 54  1  0  0  0  0
 24 55  1  0  0  0  0
 25 27  1  0  0  0  0
 25 24  2  0  0  0  0
 26 25  1  0  0  0  0
 26 56  1  0  0  0  0
 26 57  1  0  0  0  0
 27 58  1  0  0  0  0
 27 59  1  0  0  0  0
 28 26  1  0  0  0  0
 28 29  1  0  0  0  0
 28 60  1  0  0  0  0
 28 61  1  0  0  0  0
 29 30  1  0  0  0  0
 29 62  1  0  0  0  0
 29 63  1  0  0  0  0
 30 27  1  0  0  0  0
 30 64  1  0  0  0  0
 30 65  1  0  0  0  0
 31 32  1  0  0  0  0
 32 66  1  0  0  0  0
 32 67  1  0  0  0  0
 32 68  1  0  0  0  0
 33 34  1  0  0  0  0
 33 35  1  0  0  0  0
 35 36  1  0  0  0  0
 36 37  2  0  0  0  0
 36 69  1  0  0  0  0
 37 38  1  0  0  0  0
 39 37  1  0  0  0  0
 39 40  1  0  0  0  0
 41 39  2  0  0  0  0
 41 70  1  0  0  0  0
 42 35  2  0  0  0  0
 42 41  1  0  0  0  0
 42 71  1  0  0  0  0
M  END
>  <MODEL>
1

>  <REMARK>
 VINA RESULT:      -9.1      0.000      0.000
  8 active torsions:
  status: ('A' for Active; 'I' for Inactive)
    1  A    between atoms: O_2  and  C_3 
    2  A    between atoms: C_4  and  O_5 
    3  A    between atoms: O_5  and  C_6 
    4  A    between atoms: C_6  and  C_7 
    5  A    between atoms: N_9  and  C_10 
    6  A    between atoms: C_10  and  C_11 
    7  A    between atoms: C_30  and  N_31 
    8  A    between atoms: N_31  and  C_33 

>  <TORSDO>
F 8

$$$$
resistance_project/docking/8faf60323ce63d5a/P00533_WT/docked/molecule_0005_out.pdbqt
 OpenBabel09142609533D

 71 75  0  0  1  0  0  0  0  0999 V2000
   -1.1400   51.5140  -20.0840 C   0  0  0  0  0  0  0  0  0  0  0  0
   -1.4960   50.3430  -19.4620 C   0  0  0  0  0  0  0  0  0  0  0  0
   -2.1130   49.3780  -20.2440 C   0  0  0  0  0  0  0  0  0  0  0  0
   -2.3430   49.6080  -21.5690 C   0  0  0  0  0  0  0  0  0  0  0  0
   -2.9350   48.6800  -22.3180 N   0  0  0  0  0  0  0  0  0  0  0  0
   -3.2080   47.8040  -21.8740 H   0  0  0  0  0  0  0  0  0  0  0  0
   -3.1930   48.8380  -23.6290 C   0  0  0  0  0  0  0  0  0  0  0  0
   -2.8240   50.0050  -24.1900 N   0  0  0  0  0  0  0  0  0  0  0  0
   -3.0120   50.1420  -25.1830 H   0  0  0  0  0  0  0  0  0  0  0  0
   -2.2220   51.0000  -23.5170 C   0  0  0  0  0  0  0  0  0  0  0  0
   -1.9760   50.7950  -22.1750 C   0  0  0  0  0  0  0  0  0  0  0  0
   -1.3630   51.7680  -21.4240 C   0  0  0  0  0  0  0  0  0  0  0  0
   -1.2260   50.2020  -18.1300 O   0  0  0  0  0  0  0  0  0  0  0  0
   -0.4560   49.2010  -17.5280 C   0  0  0  0  0  0  0  0  0  0  0  0
    0.5360   49.7710  -16.5200 C   0  0  2  0  0  0  0  0  0  0  0  0
   -0.2840   50.3530  -15.4020 C   0  0  0  0  0  0  0  0  0  0  0  0
    0.5310   50.9130  -14.3700 N   0  0  0  0  0  0  0  0  0  0  0  0
    1.8380   51.3330  -14.7620 C   0  0  0  0  0  0  0  0  0  0  0  0
    1.9170   51.7530  -16.1850 C   0  0  0  0  0  0  0  0  0  0  0  0
    2.5480   52.7900  -16.5580 O   0  0  0  0  0  0  0  0  0  0  0  0
    1.2330   50.9140  -17.1300 N   0  0  0  0  0  0  0  0  0  0  0  0
    1.2290   51.0950  -18.1340 H   0  0  0  0  0  0  0  0  0  0  0  0
   -0.1870   51.9820  -13.6970 C   0  0  0  0  0  0  0  0  0  0  0  0
   -1.5510   51.5240  -13.3600 C   0  0  0  0  0  0  0  0  0  0  0  0
   -2.1920   51.7830  -12.2330 C   0  0  0  0  0  0  0  0  0  0  0  0
   -1.5740   52.6410  -11.1850 C   0  0  0  0  0  0  0  0  0  0  0  0
   -3.5510   51.1740  -12.0770 C   0  0  0  0  0  0  0  0  0  0  0  0
   -2.5720   53.7110  -10.8050 C   0  0  0  0  0  0  0  0  0  0  0  0
   -3.9520   53.4650  -11.3430 C   0  0  0  0  0  0  0  0  0  0  0  0
   -4.4040   52.0350  -11.1690 C   0  0  0  0  0  0  0  0  0  0  0  0
   -0.5120   52.5220  -19.3370 O   0  0  0  0  0  0  0  0  0  0  0  0
    0.6170   53.2030  -19.7880 C   0  0  0  0  0  0  0  0  0  0  0  0
   -1.8340   52.2300  -24.1170 N   0  0  0  0  0  0  0  0  0  0  0  0
   -2.3610   53.0870  -23.9460 H   0  0  0  0  0  0  0  0  0  0  0  0
   -0.6880   52.2300  -24.9620 C   0  0  0  0  0  0  0  0  0  0  0  0
   -0.6350   52.9570  -26.1210 C   0  0  0  0  0  0  0  0  0  0  0  0
    0.4670   52.9780  -26.9660 C   0  0  0  0  0  0  0  0  0  0  0  0
    0.4970   53.9200  -28.4410 Cl  0  0  0  0  0  0  0  0  0  0  0  0
    1.5550   52.2170  -26.5960 C   0  0  0  0  0  0  0  0  0  0  0  0
    2.9900   52.1830  -27.6040 Cl  0  0  0  0  0  0  0  0  0  0  0  0
    1.5610   51.4610  -25.4340 C   0  0  0  0  0  0  0  0  0  0  0  0
    0.4260   51.4780  -24.6230 C   0  0  0  0  0  0  0  0  0  0  0  0
   -2.3997   48.4812  -19.8214 H   0  0  0  0  0  0  0  0  0  0  0  0
   -2.6880   48.0541  -24.1537 H   0  0  0  0  0  0  0  0  0  0  0  0
   -1.9720   52.6458  -21.4836 H   0  0  0  0  0  0  0  0  0  0  0  0
    0.0860   48.6781  -18.2881 H   0  0  0  0  0  0  0  0  0  0  0  0
   -1.1190   48.5447  -17.0039 H   0  0  0  0  0  0  0  0  0  0  0  0
    1.2254   49.0166  -16.2029 H   0  0  0  0  0  0  0  0  0  0  0  0
   -0.8905   49.5789  -14.9803 H   0  0  0  0  0  0  0  0  0  0  0  0
   -0.8844   51.1393  -15.8097 H   0  0  0  0  0  0  0  0  0  0  0  0
    2.1281   52.1593  -14.1472 H   0  0  0  0  0  0  0  0  0  0  0  0
    2.4904   50.4934  -14.6422 H   0  0  0  0  0  0  0  0  0  0  0  0
   -0.2460   52.8334  -14.3425 H   0  0  0  0  0  0  0  0  0  0  0  0
    0.3310   52.2495  -12.7998 H   0  0  0  0  0  0  0  0  0  0  0  0
   -2.0451   50.9537  -14.0640 H   0  0  0  0  0  0  0  0  0  0  0  0
   -0.6834   53.0949  -11.5667 H   0  0  0  0  0  0  0  0  0  0  0  0
   -1.3170   52.0531  -10.3288 H   0  0  0  0  0  0  0  0  0  0  0  0
   -3.4547   50.1972  -11.6510 H   0  0  0  0  0  0  0  0  0  0  0  0
   -4.0179   51.1070  -13.0374 H   0  0  0  0  0  0  0  0  0  0  0  0
   -2.6285   53.7570   -9.7375 H   0  0  0  0  0  0  0  0  0  0  0  0
   -2.2270   54.6283  -11.2345 H   0  0  0  0  0  0  0  0  0  0  0  0
   -4.6381   54.1050  -10.8286 H   0  0  0  0  0  0  0  0  0  0  0  0
   -3.9283   53.6688  -12.3931 H   0  0  0  0  0  0  0  0  0  0  0  0
   -4.2744   51.7323  -10.1509 H   0  0  0  0  0  0  0  0  0  0  0  0
   -5.4397   51.9343  -11.4181 H   0  0  0  0  0  0  0  0  0  0  0  0
    0.9167   53.9219  -19.0543 H   0  0  0  0  0  0  0  0  0  0  0  0
    0.3886   53.7038  -20.7056 H   0  0  0  0  0  0  0  0  0  0  0  0
    1.4126   52.5062  -19.9504 H   0  0  0  0  0  0  0  0  0  0  0  0
   -1.4595   53.5205  -26.3811 H   0  0  0  0  0  0  0  0  0  0  0  0
    2.3864   50.8984  -25.1748 H   0  0  0  0  0  0  0  0  0  0  0  0
    0.4156   50.9204  -23.7547 H   0  0  0  0  0  0  0  0  0  0  0  0
  1  2  2  0  0  0  0
  1 31  1  0  0  0  0
  2 13  1  0  0  0  0
  3  2  1  0  0  0  0
  3 43  1  0  0  0  0
  4  3  2  0  0  0  0
  5  6  1  0  0  0  0
  5  4  1  0  0  0  0
  7  5  1  0  0  0  0
  7 44  1  0  0  0  0
  8  7  1  0  0  0  0
  8 10  1  0  0  0  0
  9  8  1  0  0  0  0
 10 11  2  0  0  0  0
 11  4  1  0  0  0  0
 11 12  1  0  0  0  0
 12  1  1  0  0  0  0
 12 45  1  0  0  0  0
 13 14  1  0  0  0  0
 14 15  1  0  0  0  0
 14 46  1  0  0  0  0
 14 47  1  0  0  0  0
 15 16  1  0  0  0  0
 15 48  1  1  0  0  0
 16 17  1  0  0  0  0
 16 49  1  0  0  0  0
 16 50  1  0  0  0  0
 17 23  1  0  0  0  0
 18 17  1  0  0  0  0
 18 51  1  0  0  0  0
 18 52  1  0  0  0  0
 19 18  1  0  0  0  0
 20 19  2  0  0  0  0
 21 15  1  0  0  0  0
 21 19  1  0  0  0  0
 22 21  1  0  0  0  0
 23 24  1  0  0  0  0
 23 53  1  0  0  0  0
 23 54  1  0  0  0  0
 24 25  2  0  0  0  0
 24 55  1  0  0  0  0
 25 27  1  0  0  0  0
 25 26  1  0  0  0  0
 26 28  1  0  0  0  0
 26 56  1  0  0  0  0
 26 57  1  0  0  0  0
 27 30  1  0  0  0  0
 27 58  1  0  0  0  0
 27 59  1  0  0  0  0
 28 60  1  0  0  0  0
 28 61  1  0  0  0  0
 29 30  1  0  0  0  0
 29 28  1  0  0  0  0
 29 62  1  0  0  0  0
 29 63  1  0  0  0  0
 30 64  1  0  0  0  0
 30 65  1  0  0  0  0
 32 31  1  0  0  0  0
 32 66  1  0  0  0  0
 32 67  1  0  0  0  0
 32 68  1  0  0  0  0
 33 34  1  0  0  0  0
 33 10  1  0  0  0  0
 35 42  1  0  0  0  0
 35 33  1  0  0  0  0
 36 35  2  0  0  0  0
 36 69  1  0  0  0  0
 37 39  2  0  0  0  0
 37 36  1  0  0  0  0
 38 37  1  0  0  0  0
 39 41  1  0  0  0  0
 40 39  1  0  0  0  0
 41 42  2  0  0  0  0
 41 70  1  0  0  0  0
 42 71  1  0  0  0  0
M  END
>  <REMARK>
 VINA RESULT:      -8.7      4.733      9.737
  8 active torsions:
  status: ('A' for Active; 'I' for Inactive)
    1  A    between atoms: O_2  and  C_3 
    2  A    between atoms: C_4  and  O_5 
    3  A    between atoms: O_5  and  C_6 
    4  A    between atoms: C_6  and  C_7 
    5  A    between atoms: N_9  and  C_10 
    6  A    between atoms: C_10  and  C_11 
    7  A    between atoms: C_30  and  N_31 
    8  A    between atoms: N_31  and  C_33 

>  <TORSDO>
F 8

$$$$
resistance_project/docking/8faf60323ce63d5a/P00533_WT/docked/molecule_0005_out.pdbqt
 OpenBabel09142609533D

 71 75  0  0  1  0  0  0  0  0999 V2000
   -0.4250   51.2030  -19.7860 C   0  0  0  0  0  0  0  0  0  0  0  0
    0.4260   52.0680  -20.4300 C   0  0  0  0  0  0  0  0  0  0  0  0
    1.4530   52.6150  -19.6760 C   0  0  0  0  0  0  0  0  0  0  0  0
    1.5880   52.2920  -18.3570 C   0  0  0  0  0  0  0  0  0  0  0  0
    2.5760   52.8180  -17.6350 N   0  0  0  0  0  0  0  0  0  0  0  0
    3.2190   53.4630  -18.0940 H   0  0  0  0  0  0  0  0  0  0  0  0
    2.7690   52.5460  -16.3320 C   0  0  0  0  0  0  0  0  0  0  0  0
    1.9060   51.6920  -15.7500 N   0  0  0  0  0  0  0  0  0  0  0  0
    2.0380   51.4740  -14.7620 H   0  0  0  0  0  0  0  0  0  0  0  0
    0.8810   51.1120  -16.3950 C   0  0  0  0  0  0  0  0  0  0  0  0
    0.7190   51.4200  -17.7300 C   0  0  0  0  0  0  0  0  0  0  0  0
   -0.3070   50.8630  -18.4530 C   0  0  0  0  0  0  0  0  0  0  0  0
    0.2130   52.3330  -21.7530 O   0  0  0  0  0  0  0  0  0  0  0  0
    1.1620   52.7430  -22.6940 C   0  0  0  0  0  0  0  0  0  0  0  0
    0.5220   53.1210  -24.0250 C   0  0  2  0  0  0  0  0  0  0  0  0
   -0.6200   52.1640  -24.2310 C   0  0  0  0  0  0  0  0  0  0  0  0
   -1.3240   52.4200  -25.4490 N   0  0  0  0  0  0  0  0  0  0  0  0
   -0.5830   53.0790  -26.4750 C   0  0  0  0  0  0  0  0  0  0  0  0
    0.8750   52.8020  -26.4170 C   0  0  0  0  0  0  0  0  0  0  0  0
    1.5650   52.5470  -27.4520 O   0  0  0  0  0  0  0  0  0  0  0  0
    1.4720   52.8350  -25.1110 N   0  0  0  0  0  0  0  0  0  0  0  0
    2.4670   52.6730  -24.9500 H   0  0  0  0  0  0  0  0  0  0  0  0
   -1.9270   51.1910  -25.9400 C   0  0  0  0  0  0  0  0  0  0  0  0
   -2.0950   50.2430  -24.8190 C   0  0  0  0  0  0  0  0  0  0  0  0
   -2.7620   49.1020  -24.8710 C   0  0  0  0  0  0  0  0  0  0  0  0
   -3.3860   48.6410  -26.1420 C   0  0  0  0  0  0  0  0  0  0  0  0
   -2.8520   48.3170  -23.6000 C   0  0  0  0  0  0  0  0  0  0  0  0
   -2.9470   47.2160  -26.3910 C   0  0  0  0  0  0  0  0  0  0  0  0
   -2.2730   46.5790  -25.2100 C   0  0  0  0  0  0  0  0  0  0  0  0
   -2.9940   46.8420  -23.9090 C   0  0  0  0  0  0  0  0  0  0  0  0
   -1.4810   50.6230  -20.5050 O   0  0  0  0  0  0  0  0  0  0  0  0
   -2.7870   51.1090  -20.4520 C   0  0  0  0  0  0  0  0  0  0  0  0
   -0.0280   50.2100  -15.7730 N   0  0  0  0  0  0  0  0  0  0  0  0
    0.0210   49.2070  -15.9530 H   0  0  0  0  0  0  0  0  0  0  0  0
   -1.0080   50.7500  -14.8920 C   0  0  0  0  0  0  0  0  0  0  0  0
   -0.6700   51.4120  -13.7420 C   0  0  0  0  0  0  0  0  0  0  0  0
   -1.6010   51.9500  -12.8630 C   0  0  0  0  0  0  0  0  0  0  0  0
   -1.1310   52.7900  -11.4000 Cl  0  0  0  0  0  0  0  0  0  0  0  0
   -2.9310   51.7960  -13.1880 C   0  0  0  0  0  0  0  0  0  0  0  0
   -4.1770   52.4440  -12.1350 Cl  0  0  0  0  0  0  0  0  0  0  0  0
   -3.3350   51.1360  -14.3390 C   0  0  0  0  0  0  0  0  0  0  0  0
   -2.3550   50.6170  -15.1850 C   0  0  0  0  0  0  0  0  0  0  0  0
    2.1190   53.2700  -20.1147 H   0  0  0  0  0  0  0  0  0  0  0  0
    2.7161   53.4717  -15.7981 H   0  0  0  0  0  0  0  0  0  0  0  0
   -0.1883   49.8007  -18.4058 H   0  0  0  0  0  0  0  0  0  0  0  0
    1.6852   53.5931  -22.3088 H   0  0  0  0  0  0  0  0  0  0  0  0
    1.8283   51.9243  -22.8690 H   0  0  0  0  0  0  0  0  0  0  0  0
    0.2296   54.1503  -24.0229 H   0  0  0  0  0  0  0  0  0  0  0  0
   -0.2334   51.1667  -24.2591 H   0  0  0  0  0  0  0  0  0  0  0  0
   -1.3069   52.2917  -23.4206 H   0  0  0  0  0  0  0  0  0  0  0  0
   -0.9532   52.7525  -27.4244 H   0  0  0  0  0  0  0  0  0  0  0  0
   -0.7115   54.1316  -26.3324 H   0  0  0  0  0  0  0  0  0  0  0  0
   -1.2933   50.7551  -26.6838 H   0  0  0  0  0  0  0  0  0  0  0  0
   -2.8826   51.4091  -26.3691 H   0  0  0  0  0  0  0  0  0  0  0  0
   -1.6547   50.4922  -23.9195 H   0  0  0  0  0  0  0  0  0  0  0  0
   -4.4519   48.6828  -26.0587 H   0  0  0  0  0  0  0  0  0  0  0  0
   -3.0826   49.2694  -26.9531 H   0  0  0  0  0  0  0  0  0  0  0  0
   -3.7033   48.6451  -23.0409 H   0  0  0  0  0  0  0  0  0  0  0  0
   -1.9602   48.4711  -23.0291 H   0  0  0  0  0  0  0  0  0  0  0  0
   -2.2629   47.2118  -27.2137 H   0  0  0  0  0  0  0  0  0  0  0  0
   -3.8301   46.6466  -26.5928 H   0  0  0  0  0  0  0  0  0  0  0  0
   -1.2789   46.9673  -25.1339 H   0  0  0  0  0  0  0  0  0  0  0  0
   -2.2762   45.5211  -25.3706 H   0  0  0  0  0  0  0  0  0  0  0  0
   -2.5561   46.2607  -23.1247 H   0  0  0  0  0  0  0  0  0  0  0  0
   -4.0261   46.5714  -23.9888 H   0  0  0  0  0  0  0  0  0  0  0  0
   -3.4158   50.5109  -21.0780 H   0  0  0  0  0  0  0  0  0  0  0  0
   -2.8044   52.1229  -20.7935 H   0  0  0  0  0  0  0  0  0  0  0  0
   -3.1429   51.0661  -19.4438 H   0  0  0  0  0  0  0  0  0  0  0  0
    0.3315   51.5169  -13.5160 H   0  0  0  0  0  0  0  0  0  0  0  0
   -4.3367   51.0314  -14.5641 H   0  0  0  0  0  0  0  0  0  0  0  0
   -2.6392   50.1243  -16.0461 H   0  0  0  0  0  0  0  0  0  0  0  0
  1 12  1  0  0  0  0
  2  1  2  0  0  0  0
  2  3  1  0  0  0  0
  3  4  2  0  0  0  0
  3 43  1  0  0  0  0
  4 11  1  0  0  0  0
  4  5  1  0  0  0  0
  5  7  1  0  0  0  0
  6  5  1  0  0  0  0
  7  8  1  0  0  0  0
  7 44  1  0  0  0  0
  8  9  1  0  0  0  0
 10 33  1  0  0  0  0
 10  8  1  0  0  0  0
 11 10  2  0  0  0  0
 12 11  1  0  0  0  0
 12 45  1  0  0  0  0
 13  2  1  0  0  0  0
 14 13  1  0  0  0  0
 14 46  1  0  0  0  0
 14 47  1  0  0  0  0
 15 14  1  0  0  0  0
 15 48  1  6  0  0  0
 16 15  1  0  0  0  0
 16 49  1  0  0  0  0
 16 50  1  0  0  0  0
 17 16  1  0  0  0  0
 18 19  1  0  0  0  0
 18 17  1  0  0  0  0
 18 51  1  0  0  0  0
 18 52  1  0  0  0  0
 19 21  1  0  0  0  0
 20 19  2  0  0  0  0
 21 22  1  0  0  0  0
 21 15  1  0  0  0  0
 23 17  1  0  0  0  0
 23 24  1  0  0  0  0
 23 53  1  0  0  0  0
 23 54  1  0  0  0  0
 24 55  1  0  0  0  0
 25 24  2  0  0  0  0
 25 27  1  0  0  0  0
 26 25  1  0  0  0  0
 26 56  1  0  0  0  0
 26 57  1  0  0  0  0
 27 58  1  0  0  0  0
 27 59  1  0  0  0  0
 28 26  1  0  0  0  0
 28 29  1  0  0  0  0
 28 60  1  0  0  0  0
 28 61  1  0  0  0  0
 29 30  1  0  0  0  0
 29 62  1  0  0  0  0
 29 63  1  0  0  0  0
 30 27  1  0  0  0  0
 30 64  1  0  0  0  0
 30 65  1  0  0  0  0
 31 32  1  0  0  0  0
 31  1  1  0  0  0  0
 32 66  1  0  0  0  0
 32 67  1  0  0  0  0
 32 68  1  0  0  0  0
 33 35  1  0  0  0  0
 34 33  1  0  0  0  0
 35 36  1  0  0  0  0
 36 37  2  0  0  0  0
 36 69  1  0  0  0  0
 37 38  1  0  0  0  0
 39 37  1  0  0  0  0
 39 40  1  0  0  0  0
 41 39  2  0  0  0  0
 41 70  1  0  0  0  0
 42 35  2  0  0  0  0
 42 41  1  0  0  0  0
 42 71  1  0  0  0  0
M  END
>  <REMARK>
 VINA RESULT:      -8.6      3.313      5.393
  8 active torsions:
  status: ('A' for Active; 'I' for Inactive)
    1  A    between atoms: O_2  and  C_3 
    2  A    between atoms: C_4  and  O_5 
    3  A    between atoms: O_5  and  C_6 
    4  A    between atoms: C_6  and  C_7 
    5  A    between atoms: N_9  and  C_10 
    6  A    between atoms: C_10  and  C_11 
    7  A    between atoms: C_30  and  N_31 
    8  A    between atoms: N_31  and  C_33 

>  <TORSDO>
F 8

$$$$
resistance_project/docking/8faf60323ce63d5a/P00533_WT/docked/molecule_0005_out.pdbqt
 OpenBabel09142609533D

 71 75  0  0  1  0  0  0  0  0999 V2000
    0.3780   50.5110  -19.7250 C   0  0  0  0  0  0  0  0  0  0  0  0
    0.9820   51.3640  -18.8350 C   0  0  0  0  0  0  0  0  0  0  0  0
    1.4150   52.5850  -19.3300 C   0  0  0  0  0  0  0  0  0  0  0  0
    1.2350   52.8980  -20.6470 C   0  0  0  0  0  0  0  0  0  0  0  0
    1.6510   54.0710  -21.1200 N   0  0  0  0  0  0  0  0  0  0  0  0
    2.1030   54.7190  -20.4750 H   0  0  0  0  0  0  0  0  0  0  0  0
    1.5080   54.4460  -22.4040 C   0  0  0  0  0  0  0  0  0  0  0  0
    0.9100   53.5720  -23.2340 N   0  0  0  0  0  0  0  0  0  0  0  0
    0.7930   53.8390  -24.2110 H   0  0  0  0  0  0  0  0  0  0  0  0
    0.4570   52.3660  -22.8500 C   0  0  0  0  0  0  0  0  0  0  0  0
    0.6250   52.0230  -21.5240 C   0  0  0  0  0  0  0  0  0  0  0  0
    0.1860   50.8070  -21.0600 C   0  0  0  0  0  0  0  0  0  0  0  0
    1.1190   50.9660  -17.5350 O   0  0  0  0  0  0  0  0  0  0  0  0
    1.3450   51.7820  -16.4230 C   0  0  0  0  0  0  0  0  0  0  0  0
    0.7430   51.1950  -15.1510 C   0  0  2  0  0  0  0  0  0  0  0  0
   -0.5240   50.4980  -15.5650 C   0  0  0  0  0  0  0  0  0  0  0  0
   -1.1880   49.8840  -14.4590 N   0  0  0  0  0  0  0  0  0  0  0  0
   -0.9180   50.4460  -13.1750 C   0  0  0  0  0  0  0  0  0  0  0  0
   -0.5820   51.8920  -13.2260 C   0  0  0  0  0  0  0  0  0  0  0  0
   -1.0540   52.7340  -12.4000 O   0  0  0  0  0  0  0  0  0  0  0  0
    0.3150   52.2950  -14.2730 N   0  0  0  0  0  0  0  0  0  0  0  0
    0.6270   53.2580  -14.3980 H   0  0  0  0  0  0  0  0  0  0  0  0
   -2.6180   49.8150  -14.7150 C   0  0  0  0  0  0  0  0  0  0  0  0
   -2.9050   50.3690  -16.0540 C   0  0  0  0  0  0  0  0  0  0  0  0
   -3.0860   49.6610  -17.1560 C   0  0  0  0  0  0  0  0  0  0  0  0
   -3.0600   48.1720  -17.1180 C   0  0  0  0  0  0  0  0  0  0  0  0
   -3.3140   50.4290  -18.4200 C   0  0  0  0  0  0  0  0  0  0  0  0
   -4.3060   47.6630  -17.8060 C   0  0  0  0  0  0  0  0  0  0  0  0
   -5.0530   48.7240  -18.5610 C   0  0  0  0  0  0  0  0  0  0  0  0
   -4.1460   49.6090  -19.3840 C   0  0  0  0  0  0  0  0  0  0  0  0
   -0.0780   49.2630  -19.2730 O   0  0  0  0  0  0  0  0  0  0  0  0
   -0.5650   48.2810  -20.1350 C   0  0  0  0  0  0  0  0  0  0  0  0
   -0.1750   51.4470  -23.7330 N   0  0  0  0  0  0  0  0  0  0  0  0
    0.3480   50.9950  -24.4830 H   0  0  0  0  0  0  0  0  0  0  0  0
   -1.5600   51.1780  -23.5390 C   0  0  0  0  0  0  0  0  0  0  0  0
   -2.0230   49.9300  -23.2230 C   0  0  0  0  0  0  0  0  0  0  0  0
   -3.3660   49.6350  -23.0270 C   0  0  0  0  0  0  0  0  0  0  0  0
   -3.9230   48.0250  -22.6240 Cl  0  0  0  0  0  0  0  0  0  0  0  0
   -4.2620   50.6740  -23.1650 C   0  0  0  0  0  0  0  0  0  0  0  0
   -5.9790   50.3940  -22.9350 Cl  0  0  0  0  0  0  0  0  0  0  0  0
   -3.8520   51.9600  -23.4830 C   0  0  0  0  0  0  0  0  0  0  0  0
   -2.4900   52.1970  -23.6680 C   0  0  0  0  0  0  0  0  0  0  0  0
    1.8755   53.2603  -18.7000 H   0  0  0  0  0  0  0  0  0  0  0  0
    0.9311   55.3471  -22.4145 H   0  0  0  0  0  0  0  0  0  0  0  0
    0.6867   50.0509  -21.6280 H   0  0  0  0  0  0  0  0  0  0  0  0
    0.9048   52.7405  -16.6029 H   0  0  0  0  0  0  0  0  0  0  0  0
    2.4026   51.8617  -16.2815 H   0  0  0  0  0  0  0  0  0  0  0  0
    1.4480   50.5560  -14.6616 H   0  0  0  0  0  0  0  0  0  0  0  0
   -0.2830   49.7435  -16.2844 H   0  0  0  0  0  0  0  0  0  0  0  0
   -1.1835   51.2327  -15.9775 H   0  0  0  0  0  0  0  0  0  0  0  0
   -0.0931   49.9207  -12.7409 H   0  0  0  0  0  0  0  0  0  0  0  0
   -1.8099   50.3480  -12.5920 H   0  0  0  0  0  0  0  0  0  0  0  0
   -2.9389   48.7951  -14.6746 H   0  0  0  0  0  0  0  0  0  0  0  0
   -3.1411   50.3827  -13.9741 H   0  0  0  0  0  0  0  0  0  0  0  0
   -2.9697   51.3957  -16.1363 H   0  0  0  0  0  0  0  0  0  0  0  0
   -2.1911   47.8113  -17.6278 H   0  0  0  0  0  0  0  0  0  0  0  0
   -3.0285   47.8275  -16.1055 H   0  0  0  0  0  0  0  0  0  0  0  0
   -3.8292   51.3390  -18.1932 H   0  0  0  0  0  0  0  0  0  0  0  0
   -2.3692   50.6486  -18.8718 H   0  0  0  0  0  0  0  0  0  0  0  0
   -4.0221   46.8946  -18.4944 H   0  0  0  0  0  0  0  0  0  0  0  0
   -4.9614   47.3028  -17.0408 H   0  0  0  0  0  0  0  0  0  0  0  0
   -5.7523   48.2483  -19.2164 H   0  0  0  0  0  0  0  0  0  0  0  0
   -5.5419   49.3464  -17.8410 H   0  0  0  0  0  0  0  0  0  0  0  0
   -4.7309   50.2561  -20.0037 H   0  0  0  0  0  0  0  0  0  0  0  0
   -3.5171   49.0191  -20.0176 H   0  0  0  0  0  0  0  0  0  0  0  0
   -0.8528   47.4200  -19.5686 H   0  0  0  0  0  0  0  0  0  0  0  0
    0.1984   48.0094  -20.8338 H   0  0  0  0  0  0  0  0  0  0  0  0
   -1.4143   48.6601  -20.6640 H   0  0  0  0  0  0  0  0  0  0  0  0
   -1.3365   49.1657  -23.1249 H   0  0  0  0  0  0  0  0  0  0  0  0
   -4.5388   52.7241  -23.5805 H   0  0  0  0  0  0  0  0  0  0  0  0
   -2.1691   53.1487  -23.9053 H   0  0  0  0  0  0  0  0  0  0  0  0
  1 31  1  0  0  0  0
  1  2  2  0  0  0  0
  2 13  1  0  0  0  0
  3  2  1  0  0  0  0
  3 43  1  0  0  0  0
  4  3  2  0  0  0  0
  5  4  1  0  0  0  0
  5  6  1  0  0  0  0
  7  5  1  0  0  0  0
  7 44  1  0  0  0  0
  8 10  1  0  0  0  0
  8  7  1  0  0  0  0
  9  8  1  0  0  0  0
 10 11  2  0  0  0  0
 11 12  1  0  0  0  0
 11  4  1  0  0  0  0
 12  1  1  0  0  0  0
 12 45  1  0  0  0  0
 13 14  1  0  0  0  0
 14 15  1  0  0  0  0
 14 46  1  0  0  0  0
 14 47  1  0  0  0  0
 15 21  1  0  0  0  0
 15 48  1  1  0  0  0
 16 15  1  0  0  0  0
 16 17  1  0  0  0  0
 16 49  1  0  0  0  0
 16 50  1  0  0  0  0
 17 18  1  0  0  0  0
 18 51  1  0  0  0  0
 18 52  1  0  0  0  0
 19 18  1  0  0  0  0
 19 20  2  0  0  0  0
 21 19  1  0  0  0  0
 22 21  1  0  0  0  0
 23 17  1  0  0  0  0
 23 53  1  0  0  0  0
 23 54  1  0  0  0  0
 24 23  1  0  0  0  0
 24 55  1  0  0  0  0
 25 26  1  0  0  0  0
 25 24  2  0  0  0  0
 26 56  1  0  0  0  0
 26 57  1  0  0  0  0
 27 25  1  0  0  0  0
 27 58  1  0  0  0  0
 27 59  1  0  0  0  0
 28 26  1  0  0  0  0
 28 60  1  0  0  0  0
 28 61  1  0  0  0  0
 29 28  1  0  0  0  0
 29 62  1  0  0  0  0
 29 63  1  0  0  0  0
 30 29  1  0  0  0  0
 30 27  1  0  0  0  0
 30 64  1  0  0  0  0
 30 65  1  0  0  0  0
 32 31  1  0  0  0  0
 32 66  1  0  0  0  0
 32 67  1  0  0  0  0
 32 68  1  0  0  0  0
 33 35  1  0  0  0  0
 33 10  1  0  0  0  0
 34 33  1  0  0  0  0
 35 36  1  0  0  0  0
 36 37  2  0  0  0  0
 36 69  1  0  0  0  0
 37 38  1  0  0  0  0
 39 37  1  0  0  0  0
 39 40  1  0  0  0  0
 41 39  2  0  0  0  0
 41 70  1  0  0  0  0
 42 35  2  0  0  0  0
 42 41  1  0  0  0  0
 42 71  1  0  0  0  0
M  END
>  <REMARK>
 VINA RESULT:      -8.4      3.864      8.179
  8 active torsions:
  status: ('A' for Active; 'I' for Inactive)
    1  A    between atoms: O_2  and  C_3 
    2  A    between atoms: C_4  and  O_5 
    3  A    between atoms: O_5  and  C_6 
    4  A    between atoms: C_6  and  C_7 
    5  A    between atoms: N_9  and  C_10 
    6  A    between atoms: C_10  and  C_11 
    7  A    between atoms: C_30  and  N_31 
    8  A    between atoms: N_31  and  C_33 

>  <TORSDO>
F 8

$$$$
resistance_project/docking/8faf60323ce63d5a/P00533_WT/docked/molecule_0005_out.pdbqt
 OpenBabel09142609533D

 71 75  0  0  1  0  0  0  0  0999 V2000
   -2.2970   51.1990  -20.8060 C   0  0  0  0  0  0  0  0  0  0  0  0
   -1.0830   51.3950  -20.1950 C   0  0  0  0  0  0  0  0  0  0  0  0
   -0.0130   51.7210  -21.0150 C   0  0  0  0  0  0  0  0  0  0  0  0
   -0.1870   51.8340  -22.3640 C   0  0  0  0  0  0  0  0  0  0  0  0
    0.8420   52.1470  -23.1490 N   0  0  0  0  0  0  0  0  0  0  0  0
    1.7520   52.2970  -22.7140 H   0  0  0  0  0  0  0  0  0  0  0  0
    0.7440   52.2750  -24.4840 C   0  0  0  0  0  0  0  0  0  0  0  0
   -0.4690   52.0720  -25.0320 N   0  0  0  0  0  0  0  0  0  0  0  0
   -0.5610   52.1640  -26.0430 H   0  0  0  0  0  0  0  0  0  0  0  0
   -1.5640   51.7530  -24.3230 C   0  0  0  0  0  0  0  0  0  0  0  0
   -1.4180   51.6310  -22.9570 C   0  0  0  0  0  0  0  0  0  0  0  0
   -2.4950   51.3080  -22.1680 C   0  0  0  0  0  0  0  0  0  0  0  0
   -1.0030   51.2600  -18.8380 O   0  0  0  0  0  0  0  0  0  0  0  0
   -0.7990   50.0780  -18.1190 C   0  0  0  0  0  0  0  0  0  0  0  0
    0.2450   50.2500  -17.0210 C   0  0  2  0  0  0  0  0  0  0  0  0
   -0.4990   50.7070  -15.7970 C   0  0  0  0  0  0  0  0  0  0  0  0
    0.3690   50.8930  -14.6760 N   0  0  0  0  0  0  0  0  0  0  0  0
    1.7370   51.1660  -14.9810 C   0  0  0  0  0  0  0  0  0  0  0  0
    1.9210   51.8600  -16.2820 C   0  0  0  0  0  0  0  0  0  0  0  0
    2.7210   52.8350  -16.4300 O   0  0  0  0  0  0  0  0  0  0  0  0
    1.1350   51.3660  -17.3780 N   0  0  0  0  0  0  0  0  0  0  0  0
    1.1880   51.7540  -18.3200 H   0  0  0  0  0  0  0  0  0  0  0  0
   -0.1840   51.8990  -13.7830 C   0  0  0  0  0  0  0  0  0  0  0  0
   -1.5840   51.5550  -13.4600 C   0  0  0  0  0  0  0  0  0  0  0  0
   -2.1940   51.8110  -12.3150 C   0  0  0  0  0  0  0  0  0  0  0  0
   -1.4930   52.5470  -11.2270 C   0  0  0  0  0  0  0  0  0  0  0  0
   -3.6040   51.3270  -12.1810 C   0  0  0  0  0  0  0  0  0  0  0  0
   -2.3830   53.6850  -10.7810 C   0  0  0  0  0  0  0  0  0  0  0  0
   -3.7820   53.6020  -11.3200 C   0  0  0  0  0  0  0  0  0  0  0  0
   -4.3680   52.2130  -11.2200 C   0  0  0  0  0  0  0  0  0  0  0  0
   -3.4110   50.8670  -20.0200 O   0  0  0  0  0  0  0  0  0  0  0  0
   -4.4730   50.1030  -20.5020 C   0  0  0  0  0  0  0  0  0  0  0  0
   -2.8430   51.5390  -24.9090 N   0  0  0  0  0  0  0  0  0  0  0  0
   -3.6080   52.1960  -24.7550 H   0  0  0  0  0  0  0  0  0  0  0  0
   -3.0230   50.3800  -25.7160 C   0  0  0  0  0  0  0  0  0  0  0  0
   -3.4510   50.4530  -27.0150 C   0  0  0  0  0  0  0  0  0  0  0  0
   -3.6360   49.3430  -27.8280 C   0  0  0  0  0  0  0  0  0  0  0  0
   -4.1850   49.4760  -29.4850 Cl  0  0  0  0  0  0  0  0  0  0  0  0
   -3.3680   48.1090  -27.2740 C   0  0  0  0  0  0  0  0  0  0  0  0
   -3.5740   46.6510  -28.2270 Cl  0  0  0  0  0  0  0  0  0  0  0  0
   -2.9320   47.9710  -25.9650 C   0  0  0  0  0  0  0  0  0  0  0  0
   -2.7640   49.1220  -25.1950 C   0  0  0  0  0  0  0  0  0  0  0  0
    0.9199   51.8790  -20.6029 H   0  0  0  0  0  0  0  0  0  0  0  0
    1.0492   53.2692  -24.7358 H   0  0  0  0  0  0  0  0  0  0  0  0
   -2.8679   50.3655  -22.5107 H   0  0  0  0  0  0  0  0  0  0  0  0
   -0.4685   49.3160  -18.7936 H   0  0  0  0  0  0  0  0  0  0  0  0
   -1.7251   49.8094  -17.6552 H   0  0  0  0  0  0  0  0  0  0  0  0
    0.7941   49.3427  -16.8790 H   0  0  0  0  0  0  0  0  0  0  0  0
   -1.2339   49.9711  -15.5455 H   0  0  0  0  0  0  0  0  0  0  0  0
   -0.9530   51.6496  -16.0211 H   0  0  0  0  0  0  0  0  0  0  0  0
    2.1412   51.7836  -14.2063 H   0  0  0  0  0  0  0  0  0  0  0  0
    2.2408   50.2245  -15.0495 H   0  0  0  0  0  0  0  0  0  0  0  0
   -0.1530   52.8558  -14.2609 H   0  0  0  0  0  0  0  0  0  0  0  0
    0.3922   51.9314  -12.8820 H   0  0  0  0  0  0  0  0  0  0  0  0
   -2.1325   51.0741  -14.1900 H   0  0  0  0  0  0  0  0  0  0  0  0
   -0.5642   52.9341  -11.5909 H   0  0  0  0  0  0  0  0  0  0  0  0
   -1.2905   51.8910  -10.4063 H   0  0  0  0  0  0  0  0  0  0  0  0
   -3.6001   50.3233  -11.8103 H   0  0  0  0  0  0  0  0  0  0  0  0
   -4.0782   51.3587  -13.1397 H   0  0  0  0  0  0  0  0  0  0  0  0
   -2.4315   53.6774   -9.7121 H   0  0  0  0  0  0  0  0  0  0  0  0
   -1.9530   54.5873  -11.1629 H   0  0  0  0  0  0  0  0  0  0  0  0
   -4.4021   54.2751  -10.7657 H   0  0  0  0  0  0  0  0  0  0  0  0
   -3.7427   53.8605  -12.3576 H   0  0  0  0  0  0  0  0  0  0  0  0
   -4.2641   51.8436  -10.2212 H   0  0  0  0  0  0  0  0  0  0  0  0
   -5.4096   52.2247  -11.4648 H   0  0  0  0  0  0  0  0  0  0  0  0
   -5.2028   49.9792  -19.7294 H   0  0  0  0  0  0  0  0  0  0  0  0
   -4.1119   49.1436  -20.8086 H   0  0  0  0  0  0  0  0  0  0  0  0
   -4.9193   50.5999  -21.3379 H   0  0  0  0  0  0  0  0  0  0  0  0
   -3.6469   51.3854  -27.4116 H   0  0  0  0  0  0  0  0  0  0  0  0
   -2.7363   47.0381  -25.5694 H   0  0  0  0  0  0  0  0  0  0  0  0
   -2.4407   49.0352  -24.2188 H   0  0  0  0  0  0  0  0  0  0  0  0
  1  2  2  0  0  0  0
  1 31  1  0  0  0  0
  2 13  1  0  0  0  0
  3  2  1  0  0  0  0
  3 43  1  0  0  0  0
  4  3  2  0  0  0  0
  5  6  1  0  0  0  0
  5  4  1  0  0  0  0
  7  5  1  0  0  0  0
  7 44  1  0  0  0  0
  8  7  1  0  0  0  0
  8 10  1  0  0  0  0
  9  8  1  0  0  0  0
 10 11  2  0  0  0  0
 11  4  1  0  0  0  0
 11 12  1  0  0  0  0
 12  1  1  0  0  0  0
 12 45  1  0  0  0  0
 13 14  1  0  0  0  0
 14 15  1  0  0  0  0
 14 46  1  0  0  0  0
 14 47  1  0  0  0  0
 15 16  1  0  0  0  0
 15 48  1  1  0  0  0
 16 17  1  0  0  0  0
 16 49  1  0  0  0  0
 16 50  1  0  0  0  0
 17 23  1  0  0  0  0
 18 17  1  0  0  0  0
 18 51  1  0  0  0  0
 18 52  1  0  0  0  0
 19 18  1  0  0  0  0
 20 19  2  0  0  0  0
 21 15  1  0  0  0  0
 21 19  1  0  0  0  0
 22 21  1  0  0  0  0
 23 24  1  0  0  0  0
 23 53  1  0  0  0  0
 23 54  1  0  0  0  0
 24 25  2  0  0  0  0
 24 55  1  0  0  0  0
 25 27  1  0  0  0  0
 25 26  1  0  0  0  0
 26 28  1  0  0  0  0
 26 56  1  0  0  0  0
 26 57  1  0  0  0  0
 27 30  1  0  0  0  0
 27 58  1  0  0  0  0
 27 59  1  0  0  0  0
 28 60  1  0  0  0  0
 28 61  1  0  0  0  0
 29 30  1  0  0  0  0
 29 28  1  0  0  0  0
 29 62  1  0  0  0  0
 29 63  1  0  0  0  0
 30 64  1  0  0  0  0
 30 65  1  0  0  0  0
 32 31  1  0  0  0  0
 32 66  1  0  0  0  0
 32 67  1  0  0  0  0
 32 68  1  0  0  0  0
 33 34  1  0  0  0  0
 33 10  1  0  0  0  0
 35 42  1  0  0  0  0
 35 33  1  0  0  0  0
 36 35  2  0  0  0  0
 36 69  1  0  0  0  0
 37 39  2  0  0  0  0
 37 36  1  0  0  0  0
 38 37  1  0  0  0  0
 39 41  1  0  0  0  0
 40 39  1  0  0  0  0
 41 42  2  0  0  0  0
 41 70  1  0  0  0  0
 42 71  1  0  0  0  0
M  END
>  <REMARK>
 VINA RESULT:      -8.4      5.334     10.350
  8 active torsions:
  status: ('A' for Active; 'I' for Inactive)
    1  A    between atoms: O_2  and  C_3 
    2  A    between atoms: C_4  and  O_5 
    3  A    between atoms: O_5  and  C_6 
    4  A    between atoms: C_6  and  C_7 
    5  A    between atoms: N_9  and  C_10 
    6  A    between atoms: C_10  and  C_11 
    7  A    between atoms: C_30  and  N_31 
    8  A    between atoms: N_31  and  C_33 

>  <TORSDO>
F 8

$$$$
resistance_project/docking/8faf60323ce63d5a/P00533_WT/docked/molecule_0005_out.pdbqt
 OpenBabel09142609533D

 71 75  0  0  1  0  0  0  0  0999 V2000
   -0.7790   49.5800  -19.9780 C   0  0  0  0  0  0  0  0  0  0  0  0
   -0.1260   49.8630  -18.8030 C   0  0  0  0  0  0  0  0  0  0  0  0
    0.6320   51.0240  -18.7690 C   0  0  0  0  0  0  0  0  0  0  0  0
    0.7080   51.8300  -19.8680 C   0  0  0  0  0  0  0  0  0  0  0  0
    1.4360   52.9440  -19.8320 N   0  0  0  0  0  0  0  0  0  0  0  0
    1.9290   53.1720  -18.9690 H   0  0  0  0  0  0  0  0  0  0  0  0
    1.5570   53.7850  -20.8750 C   0  0  0  0  0  0  0  0  0  0  0  0
    0.8970   53.4600  -22.0030 N   0  0  0  0  0  0  0  0  0  0  0  0
    0.9780   54.0870  -22.8040 H   0  0  0  0  0  0  0  0  0  0  0  0
    0.1390   52.3590  -22.1340 C   0  0  0  0  0  0  0  0  0  0  0  0
    0.0430   51.5250  -21.0400 C   0  0  0  0  0  0  0  0  0  0  0  0
   -0.7150   50.3820  -21.1010 C   0  0  0  0  0  0  0  0  0  0  0  0
   -0.2610   48.9970  -17.7550 O   0  0  0  0  0  0  0  0  0  0  0  0
   -1.0320   49.1820  -16.6030 C   0  0  0  0  0  0  0  0  0  0  0  0
   -0.1720   49.2560  -15.3460 C   0  0  2  0  0  0  0  0  0  0  0  0
    0.6400   50.5160  -15.4620 C   0  0  0  0  0  0  0  0  0  0  0  0
    1.4870   50.7180  -14.3280 N   0  0  0  0  0  0  0  0  0  0  0  0
    1.8530   49.5440  -13.6030 C   0  0  0  0  0  0  0  0  0  0  0  0
    1.8920   48.3210  -14.4450 C   0  0  0  0  0  0  0  0  0  0  0  0
    2.8260   47.4640  -14.3640 O   0  0  0  0  0  0  0  0  0  0  0  0
    0.8050   48.1570  -15.3700 N   0  0  0  0  0  0  0  0  0  0  0  0
    0.7190   47.3500  -15.9880 H   0  0  0  0  0  0  0  0  0  0  0  0
    2.6600   51.4850  -14.7170 C   0  0  0  0  0  0  0  0  0  0  0  0
    3.6840   51.3900  -13.6570 C   0  0  0  0  0  0  0  0  0  0  0  0
    4.9250   51.8410  -13.7440 C   0  0  0  0  0  0  0  0  0  0  0  0
    5.3910   52.5580  -14.9630 C   0  0  0  0  0  0  0  0  0  0  0  0
    5.8150   51.5910  -12.5670 C   0  0  0  0  0  0  0  0  0  0  0  0
    6.0350   53.8540  -14.5280 C   0  0  0  0  0  0  0  0  0  0  0  0
    6.2830   53.9360  -13.0490 C   0  0  0  0  0  0  0  0  0  0  0  0
    6.8760   52.6680  -12.4810 C   0  0  0  0  0  0  0  0  0  0  0  0
   -1.5590   48.4170  -20.0640 O   0  0  0  0  0  0  0  0  0  0  0  0
   -2.7530   48.3610  -20.7820 C   0  0  0  0  0  0  0  0  0  0  0  0
   -0.5560   52.0230  -23.3300 N   0  0  0  0  0  0  0  0  0  0  0  0
   -1.5230   51.6990  -23.3020 H   0  0  0  0  0  0  0  0  0  0  0  0
    0.1390   52.1520  -24.5660 C   0  0  0  0  0  0  0  0  0  0  0  0
   -0.2990   52.9770  -25.5670 C   0  0  0  0  0  0  0  0  0  0  0  0
    0.3560   53.1250  -26.7830 C   0  0  0  0  0  0  0  0  0  0  0  0
   -0.2350   54.1910  -28.0400 Cl  0  0  0  0  0  0  0  0  0  0  0  0
    1.5070   52.3900  -26.9680 C   0  0  0  0  0  0  0  0  0  0  0  0
    2.4000   52.5140  -28.4730 Cl  0  0  0  0  0  0  0  0  0  0  0  0
    2.0000   51.5390  -25.9910 C   0  0  0  0  0  0  0  0  0  0  0  0
    1.3000   51.4300  -24.7890 C   0  0  0  0  0  0  0  0  0  0  0  0
    1.1411   51.2798  -17.9085 H   0  0  0  0  0  0  0  0  0  0  0  0
    1.2030   54.7440  -20.5590 H   0  0  0  0  0  0  0  0  0  0  0  0
   -0.3227   49.7833  -21.8964 H   0  0  0  0  0  0  0  0  0  0  0  0
   -1.7131   48.3623  -16.5078 H   0  0  0  0  0  0  0  0  0  0  0  0
   -1.5550   50.1103  -16.7008 H   0  0  0  0  0  0  0  0  0  0  0  0
   -0.7838   49.2156  -14.4691 H   0  0  0  0  0  0  0  0  0  0  0  0
   -0.0263   51.3489  -15.5474 H   0  0  0  0  0  0  0  0  0  0  0  0
    1.2639   50.4267  -16.3267 H   0  0  0  0  0  0  0  0  0  0  0  0
    2.8238   49.6955  -13.1792 H   0  0  0  0  0  0  0  0  0  0  0  0
    1.1053   49.3887  -12.8535 H   0  0  0  0  0  0  0  0  0  0  0  0
    2.3857   52.5097  -14.8572 H   0  0  0  0  0  0  0  0  0  0  0  0
    3.0553   51.0934  -15.6309 H   0  0  0  0  0  0  0  0  0  0  0  0
    3.4083   50.9332  -12.7736 H   0  0  0  0  0  0  0  0  0  0  0  0
    6.1042   51.9566  -15.4871 H   0  0  0  0  0  0  0  0  0  0  0  0
    4.5661   52.7547  -15.6155 H   0  0  0  0  0  0  0  0  0  0  0  0
    6.2868   50.6369  -12.6761 H   0  0  0  0  0  0  0  0  0  0  0  0
    5.2270   51.6055  -11.6731 H   0  0  0  0  0  0  0  0  0  0  0  0
    5.3920   54.6620  -14.8084 H   0  0  0  0  0  0  0  0  0  0  0  0
    6.9891   53.9070  -15.0093 H   0  0  0  0  0  0  0  0  0  0  0  0
    5.3524   54.1279  -12.5569 H   0  0  0  0  0  0  0  0  0  0  0  0
    6.9898   54.7224  -12.8851 H   0  0  0  0  0  0  0  0  0  0  0  0
    7.1584   52.8220  -11.4605 H   0  0  0  0  0  0  0  0  0  0  0  0
    7.7490   52.3816  -13.0294 H   0  0  0  0  0  0  0  0  0  0  0  0
   -3.1697   47.3785  -20.7051 H   0  0  0  0  0  0  0  0  0  0  0  0
   -2.5620   48.5879  -21.8101 H   0  0  0  0  0  0  0  0  0  0  0  0
   -3.4436   49.0736  -20.3818 H   0  0  0  0  0  0  0  0  0  0  0  0
   -1.1632   53.5186  -25.4095 H   0  0  0  0  0  0  0  0  0  0  0  0
    2.8648   50.9986  -26.1491 H   0  0  0  0  0  0  0  0  0  0  0  0
    1.6538   50.7998  -24.0523 H   0  0  0  0  0  0  0  0  0  0  0  0
  1  2  2  0  0  0  0
  2  3  1  0  0  0  0
  2 13  1  0  0  0  0
  3 43  1  0  0  0  0
  4  5  1  0  0  0  0
  4  3  2  0  0  0  0
  5  6  1  0  0  0  0
  7  5  1  0  0  0  0
  7 44  1  0  0  0  0
  8  7  1  0  0  0  0
  9  8  1  0  0  0  0
 10  8  1  0  0  0  0
 10 11  2  0  0  0  0
 11  4  1  0  0  0  0
 12 11  1  0  0  0  0
 12  1  1  0  0  0  0
 12 45  1  0  0  0  0
 13 14  1  0  0  0  0
 14 15  1  0  0  0  0
 14 46  1  0  0  0  0
 14 47  1  0  0  0  0
 15 48  1  1  0  0  0
 16 15  1  0  0  0  0
 16 17  1  0  0  0  0
 16 49  1  0  0  0  0
 16 50  1  0  0  0  0
 17 18  1  0  0  0  0
 18 51  1  0  0  0  0
 18 52  1  0  0  0  0
 19 20  2  0  0  0  0
 19 18  1  0  0  0  0
 21 15  1  0  0  0  0
 21 19  1  0  0  0  0
 22 21  1  0  0  0  0
 23 17  1  0  0  0  0
 23 24  1  0  0  0  0
 23 53  1  0  0  0  0
 23 54  1  0  0  0  0
 24 55  1  0  0  0  0
 25 24  2  0  0  0  0
 25 27  1  0  0  0  0
 26 28  1  0  0  0  0
 26 25  1  0  0  0  0
 26 56  1  0  0  0  0
 26 57  1  0  0  0  0
 27 30  1  0  0  0  0
 27 58  1  0  0  0  0
 27 59  1  0  0  0  0
 28 29  1  0  0  0  0
 28 60  1  0  0  0  0
 28 61  1  0  0  0  0
 29 30  1  0  0  0  0
 29 62  1  0  0  0  0
 29 63  1  0  0  0  0
 30 64  1  0  0  0  0
 30 65  1  0  0  0  0
 31  1  1  0  0  0  0
 32 31  1  0  0  0  0
 32 66  1  0  0  0  0
 32 67  1  0  0  0  0
 32 68  1  0  0  0  0
 33 34  1  0  0  0  0
 33 10  1  0  0  0  0
 35 33  1  0  0  0  0
 36 35  2  0  0  0  0
 36 69  1  0  0  0  0
 37 36  1  0  0  0  0
 38 37  1  0  0  0  0
 39 37  2  0  0  0  0
 39 41  1  0  0  0  0
 40 39  1  0  0  0  0
 41 42  2  0  0  0  0
 41 70  1  0  0  0  0
 42 35  1  0  0  0  0
 42 71  1  0  0  0  0
M  END
>  <REMARK>
 VINA RESULT:      -8.3      4.166      9.351
  8 active torsions:
  status: ('A' for Active; 'I' for Inactive)
    1  A    between atoms: O_2  and  C_3 
    2  A    between atoms: C_4  and  O_5 
    3  A    between atoms: O_5  and  C_6 
    4  A    between atoms: C_6  and  C_7 
    5  A    between atoms: N_9  and  C_10 
    6  A    between atoms: C_10  and  C_11 
    7  A    between atoms: C_30  and  N_31 
    8  A    between atoms: N_31  and  C_33 

>  <TORSDO>
F 8

$$$$
resistance_project/docking/8faf60323ce63d5a/P00533_WT/docked/molecule_0005_out.pdbqt
 OpenBabel09142609533D

 71 75  0  0  1  0  0  0  0  0999 V2000
   -0.6480   49.1790  -17.9230 C   0  0  0  0  0  0  0  0  0  0  0  0
   -0.7230   48.7840  -19.2360 C   0  0  0  0  0  0  0  0  0  0  0  0
   -0.1230   49.6080  -20.1750 C   0  0  0  0  0  0  0  0  0  0  0  0
    0.5070   50.7540  -19.7850 C   0  0  0  0  0  0  0  0  0  0  0  0
    1.0830   51.5440  -20.6890 N   0  0  0  0  0  0  0  0  0  0  0  0
    1.0380   51.2680  -21.6700 H   0  0  0  0  0  0  0  0  0  0  0  0
    1.7200   52.6870  -20.3770 C   0  0  0  0  0  0  0  0  0  0  0  0
    1.7640   53.0280  -19.0760 N   0  0  0  0  0  0  0  0  0  0  0  0
    2.2430   53.8920  -18.8210 H   0  0  0  0  0  0  0  0  0  0  0  0
    1.2130   52.2970  -18.0930 C   0  0  0  0  0  0  0  0  0  0  0  0
    0.5700   51.1330  -18.4580 C   0  0  0  0  0  0  0  0  0  0  0  0
   -0.0160   50.3340  -17.5060 C   0  0  0  0  0  0  0  0  0  0  0  0
   -1.3750   47.6200  -19.5320 O   0  0  0  0  0  0  0  0  0  0  0  0
   -2.7550   47.3970  -19.5090 C   0  0  0  0  0  0  0  0  0  0  0  0
   -3.2250   46.5950  -20.7170 C   0  0  2  0  0  0  0  0  0  0  0  0
   -2.5950   47.2360  -21.9220 C   0  0  0  0  0  0  0  0  0  0  0  0
   -2.9440   46.5640  -23.1350 N   0  0  0  0  0  0  0  0  0  0  0  0
   -4.1690   45.8320  -23.1160 C   0  0  0  0  0  0  0  0  0  0  0  0
   -5.1710   46.3900  -22.1720 C   0  0  0  0  0  0  0  0  0  0  0  0
   -6.3990   46.5140  -22.4730 O   0  0  0  0  0  0  0  0  0  0  0  0
   -4.6740   46.7870  -20.8850 N   0  0  0  0  0  0  0  0  0  0  0  0
   -5.2710   47.1700  -20.1520 H   0  0  0  0  0  0  0  0  0  0  0  0
   -2.9060   47.5000  -24.2480 C   0  0  0  0  0  0  0  0  0  0  0  0
   -2.8450   48.8820  -23.7280 C   0  0  0  0  0  0  0  0  0  0  0  0
   -2.5660   49.9600  -24.4410 C   0  0  0  0  0  0  0  0  0  0  0  0
   -2.3260   49.8620  -25.9070 C   0  0  0  0  0  0  0  0  0  0  0  0
   -2.5060   51.2590  -23.7000 C   0  0  0  0  0  0  0  0  0  0  0  0
   -3.2040   50.8820  -26.5950 C   0  0  0  0  0  0  0  0  0  0  0  0
   -3.8330   51.8680  -25.6530 C   0  0  0  0  0  0  0  0  0  0  0  0
   -2.8620   52.4020  -24.6270 C   0  0  0  0  0  0  0  0  0  0  0  0
   -1.2400   48.3790  -16.9330 O   0  0  0  0  0  0  0  0  0  0  0  0
   -0.7500   48.3070  -15.6300 C   0  0  0  0  0  0  0  0  0  0  0  0
    1.2640   52.6640  -16.7190 N   0  0  0  0  0  0  0  0  0  0  0  0
    0.5000   53.1810  -16.2850 H   0  0  0  0  0  0  0  0  0  0  0  0
    2.4140   52.2880  -15.9690 C   0  0  0  0  0  0  0  0  0  0  0  0
    2.3280   51.5400  -14.8250 C   0  0  0  0  0  0  0  0  0  0  0  0
    3.4300   51.1570  -14.0720 C   0  0  0  0  0  0  0  0  0  0  0  0
    3.2800   50.2010  -12.6130 Cl  0  0  0  0  0  0  0  0  0  0  0  0
    4.6680   51.5650  -14.5200 C   0  0  0  0  0  0  0  0  0  0  0  0
    6.1160   51.1270  -13.6320 Cl  0  0  0  0  0  0  0  0  0  0  0  0
    4.8190   52.3230  -15.6720 C   0  0  0  0  0  0  0  0  0  0  0  0
    3.6760   52.6780  -16.3880 C   0  0  0  0  0  0  0  0  0  0  0  0
   -0.1528   49.3535  -21.1747 H   0  0  0  0  0  0  0  0  0  0  0  0
    1.2326   53.4816  -20.9023 H   0  0  0  0  0  0  0  0  0  0  0  0
   -0.7456   50.9291  -16.9976 H   0  0  0  0  0  0  0  0  0  0  0  0
   -3.0028   46.8576  -18.6188 H   0  0  0  0  0  0  0  0  0  0  0  0
   -3.2436   48.3486  -19.5342 H   0  0  0  0  0  0  0  0  0  0  0  0
   -2.9791   45.5603  -20.5992 H   0  0  0  0  0  0  0  0  0  0  0  0
   -2.9245   48.2521  -21.9838 H   0  0  0  0  0  0  0  0  0  0  0  0
   -1.5327   47.1777  -21.8078 H   0  0  0  0  0  0  0  0  0  0  0  0
   -3.9575   44.8229  -22.8298 H   0  0  0  0  0  0  0  0  0  0  0  0
   -4.5900   45.8922  -24.0979 H   0  0  0  0  0  0  0  0  0  0  0  0
   -2.0413   47.3061  -24.8476 H   0  0  0  0  0  0  0  0  0  0  0  0
   -3.7870   47.3817  -24.8436 H   0  0  0  0  0  0  0  0  0  0  0  0
   -3.0364   49.0172  -22.7230 H   0  0  0  0  0  0  0  0  0  0  0  0
   -1.2975   50.0656  -26.1207 H   0  0  0  0  0  0  0  0  0  0  0  0
   -2.5578   48.8774  -26.2559 H   0  0  0  0  0  0  0  0  0  0  0  0
   -3.1994   51.2345  -22.8855 H   0  0  0  0  0  0  0  0  0  0  0  0
   -1.5135   51.4051  -23.3279 H   0  0  0  0  0  0  0  0  0  0  0  0
   -3.9841   50.3630  -27.1117 H   0  0  0  0  0  0  0  0  0  0  0  0
   -2.5763   51.4391  -27.2587 H   0  0  0  0  0  0  0  0  0  0  0  0
   -4.6391   51.3850  -25.1413 H   0  0  0  0  0  0  0  0  0  0  0  0
   -4.1724   52.6981  -26.2366 H   0  0  0  0  0  0  0  0  0  0  0  0
   -3.3170   53.1951  -24.0712 H   0  0  0  0  0  0  0  0  0  0  0  0
   -1.9851   52.7886  -25.1030 H   0  0  0  0  0  0  0  0  0  0  0  0
   -1.3580   47.6388  -15.0567 H   0  0  0  0  0  0  0  0  0  0  0  0
   -0.7732   49.2802  -15.1859 H   0  0  0  0  0  0  0  0  0  0  0  0
    0.2574   47.9468  -15.6472 H   0  0  0  0  0  0  0  0  0  0  0  0
    1.3924   51.2447  -14.5049 H   0  0  0  0  0  0  0  0  0  0  0  0
    5.7551   52.6173  -15.9917 H   0  0  0  0  0  0  0  0  0  0  0  0
    3.7720   53.2422  -17.2468 H   0  0  0  0  0  0  0  0  0  0  0  0
  1 12  1  0  0  0  0
  1 31  1  0  0  0  0
  2  1  2  0  0  0  0
  3  4  2  0  0  0  0
  3  2  1  0  0  0  0
  3 43  1  0  0  0  0
  4 11  1  0  0  0  0
  5  7  1  0  0  0  0
  5  4  1  0  0  0  0
  6  5  1  0  0  0  0
  7  8  1  0  0  0  0
  7 44  1  0  0  0  0
  8  9  1  0  0  0  0
  8 10  1  0  0  0  0
 10 33  1  0  0  0  0
 11 10  2  0  0  0  0
 11 12  1  0  0  0  0
 12 45  1  0  0  0  0
 13 14  1  0  0  0  0
 13  2  1  0  0  0  0
 14 46  1  0  0  0  0
 14 47  1  0  0  0  0
 15 14  1  0  0  0  0
 15 48  1  1  0  0  0
 16 15  1  0  0  0  0
 16 49  1  0  0  0  0
 16 50  1  0  0  0  0
 17 18  1  0  0  0  0
 17 16  1  0  0  0  0
 18 19  1  0  0  0  0
 18 51  1  0  0  0  0
 18 52  1  0  0  0  0
 19 21  1  0  0  0  0
 20 19  2  0  0  0  0
 21 15  1  0  0  0  0
 21 22  1  0  0  0  0
 23 24  1  0  0  0  0
 23 17  1  0  0  0  0
 23 53  1  0  0  0  0
 23 54  1  0  0  0  0
 24 55  1  0  0  0  0
 25 24  2  0  0  0  0
 25 27  1  0  0  0  0
 26 25  1  0  0  0  0
 26 56  1  0  0  0  0
 26 57  1  0  0  0  0
 27 58  1  0  0  0  0
 27 59  1  0  0  0  0
 28 26  1  0  0  0  0
 28 29  1  0  0  0  0
 28 60  1  0  0  0  0
 28 61  1  0  0  0  0
 29 30  1  0  0  0  0
 29 62  1  0  0  0  0
 29 63  1  0  0  0  0
 30 27  1  0  0  0  0
 30 64  1  0  0  0  0
 30 65  1  0  0  0  0
 31 32  1  0  0  0  0
 32 66  1  0  0  0  0
 32 67  1  0  0  0  0
 32 68  1  0  0  0  0
 33 34  1  0  0  0  0
 33 35  1  0  0  0  0
 35 36  1  0  0  0  0
 36 37  2  0  0  0  0
 36 69  1  0  0  0  0
 37 38  1  0  0  0  0
 39 37  1  0  0  0  0
 39 40  1  0  0  0  0
 41 39  2  0  0  0  0
 41 70  1  0  0  0  0
 42 35  2  0  0  0  0
 42 41  1  0  0  0  0
 42 71  1  0  0  0  0
M  END
>  <REMARK>
 VINA RESULT:      -8.2      1.688      2.037
  8 active torsions:
  status: ('A' for Active; 'I' for Inactive)
    1  A    between atoms: O_2  and  C_3 
    2  A    between atoms: C_4  and  O_5 
    3  A    between atoms: O_5  and  C_6 
    4  A    between atoms: C_6  and  C_7 
    5  A    between atoms: N_9  and  C_10 
    6  A    between atoms: C_10  and  C_11 
    7  A    between atoms: C_30  and  N_31 
    8  A    between atoms: N_31  and  C_33 

>  <TORSDO>
F 8

$$$$
resistance_project/docking/8faf60323ce63d5a/P00533_WT/docked/molecule_0005_out.pdbqt
 OpenBabel09142609533D

 71 75  0  0  1  0  0  0  0  0999 V2000
   -0.6070   50.1290  -20.9740 C   0  0  0  0  0  0  0  0  0  0  0  0
    0.0100   51.1900  -21.5910 C   0  0  0  0  0  0  0  0  0  0  0  0
    0.7530   52.0390  -20.7850 C   0  0  0  0  0  0  0  0  0  0  0  0
    0.8500   51.8080  -19.4440 C   0  0  0  0  0  0  0  0  0  0  0  0
    1.5640   52.6250  -18.6720 N   0  0  0  0  0  0  0  0  0  0  0  0
    2.0310   53.4180  -19.1110 H   0  0  0  0  0  0  0  0  0  0  0  0
    1.7030   52.4590  -17.3440 C   0  0  0  0  0  0  0  0  0  0  0  0
    1.0770   51.4040  -16.7900 N   0  0  0  0  0  0  0  0  0  0  0  0
    1.1710   51.2630  -15.7840 H   0  0  0  0  0  0  0  0  0  0  0  0
    0.3350   50.5260  -17.4850 C   0  0  0  0  0  0  0  0  0  0  0  0
    0.2190   50.7350  -18.8440 C   0  0  0  0  0  0  0  0  0  0  0  0
   -0.5230   49.8770  -19.6190 C   0  0  0  0  0  0  0  0  0  0  0  0
   -0.1430   51.3410  -22.9400 O   0  0  0  0  0  0  0  0  0  0  0  0
   -0.8840   52.3270  -23.5990 C   0  0  0  0  0  0  0  0  0  0  0  0
   -2.0810   51.7420  -24.3410 C   0  0  2  0  0  0  0  0  0  0  0  0
   -3.2450   51.8170  -23.3920 C   0  0  0  0  0  0  0  0  0  0  0  0
   -4.4480   51.3110  -23.9740 N   0  0  0  0  0  0  0  0  0  0  0  0
   -4.2840   50.3660  -25.0310 C   0  0  0  0  0  0  0  0  0  0  0  0
   -3.0320   49.5740  -24.9210 C   0  0  0  0  0  0  0  0  0  0  0  0
   -2.9960   48.3210  -25.1260 O   0  0  0  0  0  0  0  0  0  0  0  0
   -1.8500   50.3070  -24.5640 N   0  0  0  0  0  0  0  0  0  0  0  0
   -0.9320   49.8710  -24.4730 H   0  0  0  0  0  0  0  0  0  0  0  0
   -5.3210   50.7910  -22.9330 C   0  0  0  0  0  0  0  0  0  0  0  0
   -4.5510   50.6230  -21.6830 C   0  0  0  0  0  0  0  0  0  0  0  0
   -4.9910   50.0370  -20.5820 C   0  0  0  0  0  0  0  0  0  0  0  0
   -6.3490   49.4280  -20.5340 C   0  0  0  0  0  0  0  0  0  0  0  0
   -4.0600   50.0220  -19.4100 C   0  0  0  0  0  0  0  0  0  0  0  0
   -6.2120   48.0170  -20.0090 C   0  0  0  0  0  0  0  0  0  0  0  0
   -4.8590   47.7180  -19.4320 C   0  0  0  0  0  0  0  0  0  0  0  0
   -4.3460   48.8190  -18.5360 C   0  0  0  0  0  0  0  0  0  0  0  0
   -1.3710   49.2400  -21.7450 O   0  0  0  0  0  0  0  0  0  0  0  0
   -1.6260   47.9270  -21.3510 C   0  0  0  0  0  0  0  0  0  0  0  0
   -0.3240   49.4130  -16.8920 N   0  0  0  0  0  0  0  0  0  0  0  0
   -0.1910   48.4690  -17.2550 H   0  0  0  0  0  0  0  0  0  0  0  0
   -1.1770   49.6570  -15.7780 C   0  0  0  0  0  0  0  0  0  0  0  0
   -0.9030   49.1680  -14.5290 C   0  0  0  0  0  0  0  0  0  0  0  0
   -1.7130   49.3880  -13.4220 C   0  0  0  0  0  0  0  0  0  0  0  0
   -1.3300   48.7460  -11.8390 Cl  0  0  0  0  0  0  0  0  0  0  0  0
   -2.8500   50.1430  -13.6180 C   0  0  0  0  0  0  0  0  0  0  0  0
   -3.9320   50.4710  -12.2770 Cl  0  0  0  0  0  0  0  0  0  0  0  0
   -3.1790   50.6650  -14.8600 C   0  0  0  0  0  0  0  0  0  0  0  0
   -2.3280   50.4120  -15.9350 C   0  0  0  0  0  0  0  0  0  0  0  0
    1.2355   52.8504  -21.2020 H   0  0  0  0  0  0  0  0  0  0  0  0
    1.3302   53.3417  -16.8679 H   0  0  0  0  0  0  0  0  0  0  0  0
   -0.1017   48.9003  -19.5035 H   0  0  0  0  0  0  0  0  0  0  0  0
   -1.2367   53.0340  -22.8775 H   0  0  0  0  0  0  0  0  0  0  0  0
   -0.2452   52.7945  -24.3189 H   0  0  0  0  0  0  0  0  0  0  0  0
   -2.2414   52.2599  -25.2635 H   0  0  0  0  0  0  0  0  0  0  0  0
   -3.3991   52.8391  -23.1155 H   0  0  0  0  0  0  0  0  0  0  0  0
   -3.0133   51.2141  -22.5389 H   0  0  0  0  0  0  0  0  0  0  0  0
   -5.1149   49.6919  -25.0161 H   0  0  0  0  0  0  0  0  0  0  0  0
   -4.2303   50.9190  -25.9455 H   0  0  0  0  0  0  0  0  0  0  0  0
   -5.7160   49.8447  -23.2385 H   0  0  0  0  0  0  0  0  0  0  0  0
   -6.1256   51.4765  -22.7669 H   0  0  0  0  0  0  0  0  0  0  0  0
   -3.5883   50.9944  -21.6679 H   0  0  0  0  0  0  0  0  0  0  0  0
   -6.7735   49.4101  -21.5160 H   0  0  0  0  0  0  0  0  0  0  0  0
   -6.9899   50.0004  -19.8964 H   0  0  0  0  0  0  0  0  0  0  0  0
   -4.1963   50.9159  -18.8379 H   0  0  0  0  0  0  0  0  0  0  0  0
   -3.0516   49.9672  -19.7635 H   0  0  0  0  0  0  0  0  0  0  0  0
   -6.3934   47.3372  -20.8152 H   0  0  0  0  0  0  0  0  0  0  0  0
   -6.9219   47.9075  -19.2160 H   0  0  0  0  0  0  0  0  0  0  0  0
   -4.1670   47.5825  -20.2368 H   0  0  0  0  0  0  0  0  0  0  0  0
   -4.9527   46.8353  -18.8345 H   0  0  0  0  0  0  0  0  0  0  0  0
   -3.4493   48.5026  -18.0454 H   0  0  0  0  0  0  0  0  0  0  0  0
   -5.0694   49.0619  -17.7860 H   0  0  0  0  0  0  0  0  0  0  0  0
   -2.2257   47.4421  -22.0927 H   0  0  0  0  0  0  0  0  0  0  0  0
   -2.1475   47.9299  -20.4167 H   0  0  0  0  0  0  0  0  0  0  0  0
   -0.7005   47.4014  -21.2412 H   0  0  0  0  0  0  0  0  0  0  0  0
   -0.0475   48.6048  -14.4028 H   0  0  0  0  0  0  0  0  0  0  0  0
   -4.0346   51.2281  -14.9857 H   0  0  0  0  0  0  0  0  0  0  0  0
   -2.5598   50.7943  -16.8651 H   0  0  0  0  0  0  0  0  0  0  0  0
  1 12  1  0  0  0  0
  2  1  2  0  0  0  0
  2  3  1  0  0  0  0
  3  4  2  0  0  0  0
  3 43  1  0  0  0  0
  4 11  1  0  0  0  0
  4  5  1  0  0  0  0
  5  7  1  0  0  0  0
  6  5  1  0  0  0  0
  7  8  1  0  0  0  0
  7 44  1  0  0  0  0
  8  9  1  0  0  0  0
 10 33  1  0  0  0  0
 10  8  1  0  0  0  0
 11 10  2  0  0  0  0
 12 11  1  0  0  0  0
 12 45  1  0  0  0  0
 13  2  1  0  0  0  0
 14 13  1  0  0  0  0
 14 46  1  0  0  0  0
 14 47  1  0  0  0  0
 15 14  1  0  0  0  0
 15 16  1  0  0  0  0
 15 48  1  6  0  0  0
 16 49  1  0  0  0  0
 16 50  1  0  0  0  0
 17 16  1  0  0  0  0
 17 23  1  0  0  0  0
 18 19  1  0  0  0  0
 18 17  1  0  0  0  0
 18 51  1  0  0  0  0
 18 52  1  0  0  0  0
 19 21  1  0  0  0  0
 20 19  2  0  0  0  0
 21 22  1  0  0  0  0
 21 15  1  0  0  0  0
 23 24  1  0  0  0  0
 23 53  1  0  0  0  0
 23 54  1  0  0  0  0
 24 25  2  0  0  0  0
 24 55  1  0  0  0  0
 25 26  1  0  0  0  0
 25 27  1  0  0  0  0
 26 28  1  0  0  0  0
 26 56  1  0  0  0  0
 26 57  1  0  0  0  0
 27 30  1  0  0  0  0
 27 58  1  0  0  0  0
 27 59  1  0  0  0  0
 28 29  1  0  0  0  0
 28 60  1  0  0  0  0
 28 61  1  0  0  0  0
 29 30  1  0  0  0  0
 29 62  1  0  0  0  0
 29 63  1  0  0  0  0
 30 64  1  0  0  0  0
 30 65  1  0  0  0  0
 31 32  1  0  0  0  0
 31  1  1  0  0  0  0
 32 66  1  0  0  0  0
 32 67  1  0  0  0  0
 32 68  1  0  0  0  0
 33 35  1  0  0  0  0
 34 33  1  0  0  0  0
 35 36  1  0  0  0  0
 36 37  2  0  0  0  0
 36 69  1  0  0  0  0
 37 38  1  0  0  0  0
 39 37  1  0  0  0  0
 39 40  1  0  0  0  0
 41 39  2  0  0  0  0
 41 70  1  0  0  0  0
 42 35  2  0  0  0  0
 42 41  1  0  0  0  0
 42 71  1  0  0  0  0
M  END
>  <REMARK>
 VINA RESULT:      -8.2      2.690      5.288
  8 active torsions:
  status: ('A' for Active; 'I' for Inactive)
    1  A    between atoms: O_2  and  C_3 
    2  A    between atoms: C_4  and  O_5 
    3  A    between atoms: O_5  and  C_6 
    4  A    between atoms: C_6  and  C_7 
    5  A    between atoms: N_9  and  C_10 
    6  A    between atoms: C_10  and  C_11 
    7  A    between atoms: C_30  and  N_31 
    8  A    between atoms: N_31  and  C_33 

>  <TORSDO>
F 8

$$$$
resistance_project/docking/8faf60323ce63d5a/P00533_WT/docked/molecule_0005_out.pdbqt
 OpenBabel09142609533D

 71 75  0  0  1  0  0  0  0  0999 V2000
    0.4290   50.3150  -17.6370 C   0  0  0  0  0  0  0  0  0  0  0  0
    1.2350   51.1860  -16.9450 C   0  0  0  0  0  0  0  0  0  0  0  0
    1.7170   52.2840  -17.6420 C   0  0  0  0  0  0  0  0  0  0  0  0
    1.3900   52.4650  -18.9550 C   0  0  0  0  0  0  0  0  0  0  0  0
    1.8540   53.5200  -19.6220 N   0  0  0  0  0  0  0  0  0  0  0  0
    2.4540   54.1790  -19.1270 H   0  0  0  0  0  0  0  0  0  0  0  0
    1.5740   53.7610  -20.9150 C   0  0  0  0  0  0  0  0  0  0  0  0
    0.7800   52.8750  -21.5460 N   0  0  0  0  0  0  0  0  0  0  0  0
    0.5580   53.0430  -22.5280 H   0  0  0  0  0  0  0  0  0  0  0  0
    0.2650   51.7830  -20.9580 C   0  0  0  0  0  0  0  0  0  0  0  0
    0.5780   51.5740  -19.6310 C   0  0  0  0  0  0  0  0  0  0  0  0
    0.0870   50.4780  -18.9650 C   0  0  0  0  0  0  0  0  0  0  0  0
    1.5080   50.9240  -15.6330 O   0  0  0  0  0  0  0  0  0  0  0  0
    2.4510   51.5640  -14.8240 C   0  0  0  0  0  0  0  0  0  0  0  0
    2.1080   51.4480  -13.3430 C   0  0  2  0  0  0  0  0  0  0  0  0
    0.7060   51.9720  -13.1910 C   0  0  0  0  0  0  0  0  0  0  0  0
    0.2480   51.9050  -11.8390 N   0  0  0  0  0  0  0  0  0  0  0  0
    1.2620   51.9090  -10.8330 C   0  0  0  0  0  0  0  0  0  0  0  0
    2.4940   52.6290  -11.2450 C   0  0  0  0  0  0  0  0  0  0  0  0
    3.1120   53.4250  -10.4710 O   0  0  0  0  0  0  0  0  0  0  0  0
    2.9570   52.3760  -12.5810 N   0  0  0  0  0  0  0  0  0  0  0  0
    3.7990   52.8030  -12.9680 H   0  0  0  0  0  0  0  0  0  0  0  0
   -0.7380   52.9460  -11.5980 C   0  0  0  0  0  0  0  0  0  0  0  0
   -1.8970   52.3710  -10.8850 C   0  0  0  0  0  0  0  0  0  0  0  0
   -2.9620   51.8330  -11.4570 C   0  0  0  0  0  0  0  0  0  0  0  0
   -3.0540   51.7190  -12.9390 C   0  0  0  0  0  0  0  0  0  0  0  0
   -4.0470   51.3560  -10.5440 C   0  0  0  0  0  0  0  0  0  0  0  0
   -3.4150   50.2910  -13.2790 C   0  0  0  0  0  0  0  0  0  0  0  0
   -3.8470   49.4810  -12.0910 C   0  0  0  0  0  0  0  0  0  0  0  0
   -4.8110   50.2210  -11.1930 C   0  0  0  0  0  0  0  0  0  0  0  0
   -0.0840   49.1880  -16.9770 O   0  0  0  0  0  0  0  0  0  0  0  0
   -1.4480   49.0010  -16.7550 C   0  0  0  0  0  0  0  0  0  0  0  0
   -0.5730   50.8510  -21.6320 N   0  0  0  0  0  0  0  0  0  0  0  0
   -0.7940   49.9470  -21.2150 H   0  0  0  0  0  0  0  0  0  0  0  0
   -1.0940   51.2180  -22.9050 C   0  0  0  0  0  0  0  0  0  0  0  0
   -0.2830   51.4820  -23.9770 C   0  0  0  0  0  0  0  0  0  0  0  0
   -0.7600   51.8420  -25.2310 C   0  0  0  0  0  0  0  0  0  0  0  0
    0.3080   52.1720  -26.5790 Cl  0  0  0  0  0  0  0  0  0  0  0  0
   -2.1270   51.9330  -25.3790 C   0  0  0  0  0  0  0  0  0  0  0  0
   -2.8180   52.3820  -26.9280 Cl  0  0  0  0  0  0  0  0  0  0  0  0
   -2.9980   51.6780  -24.3310 C   0  0  0  0  0  0  0  0  0  0  0  0
   -2.4630   51.3200  -23.0940 C   0  0  0  0  0  0  0  0  0  0  0  0
    2.3259   52.9676  -17.1656 H   0  0  0  0  0  0  0  0  0  0  0  0
    1.0966   54.7171  -20.9687 H   0  0  0  0  0  0  0  0  0  0  0  0
    0.4270   49.6094  -19.4892 H   0  0  0  0  0  0  0  0  0  0  0  0
    2.4875   52.5998  -15.0897 H   0  0  0  0  0  0  0  0  0  0  0  0
    3.3970   51.0896  -14.9816 H   0  0  0  0  0  0  0  0  0  0  0  0
    2.2318   50.4398  -13.0066 H   0  0  0  0  0  0  0  0  0  0  0  0
    0.0519   51.3894  -13.8056 H   0  0  0  0  0  0  0  0  0  0  0  0
    0.7058   53.0002  -13.4872 H   0  0  0  0  0  0  0  0  0  0  0  0
    1.5202   50.8956  -10.6068 H   0  0  0  0  0  0  0  0  0  0  0  0
    0.8637   52.4224   -9.9829 H   0  0  0  0  0  0  0  0  0  0  0  0
   -1.0611   53.3545  -12.5327 H   0  0  0  0  0  0  0  0  0  0  0  0
   -0.3011   53.7201  -11.0024 H   0  0  0  0  0  0  0  0  0  0  0  0
   -1.8741   52.3906   -9.8534 H   0  0  0  0  0  0  0  0  0  0  0  0
   -3.8091   52.3815  -13.3075 H   0  0  0  0  0  0  0  0  0  0  0  0
   -2.1199   51.9824  -13.3896 H   0  0  0  0  0  0  0  0  0  0  0  0
   -4.7185   52.1637  -10.3400 H   0  0  0  0  0  0  0  0  0  0  0  0
   -3.6094   51.0074   -9.6319 H   0  0  0  0  0  0  0  0  0  0  0  0
   -2.5590   49.8206  -13.7160 H   0  0  0  0  0  0  0  0  0  0  0  0
   -4.2462   50.3292  -13.9517 H   0  0  0  0  0  0  0  0  0  0  0  0
   -2.9794   49.2222  -11.5207 H   0  0  0  0  0  0  0  0  0  0  0  0
   -4.3540   48.6143  -12.4608 H   0  0  0  0  0  0  0  0  0  0  0  0
   -5.1917   49.5604  -10.4423 H   0  0  0  0  0  0  0  0  0  0  0  0
   -5.6388   50.5973  -11.7569 H   0  0  0  0  0  0  0  0  0  0  0  0
   -1.6018   48.0772  -16.2375 H   0  0  0  0  0  0  0  0  0  0  0  0
   -1.9617   48.9740  -17.6933 H   0  0  0  0  0  0  0  0  0  0  0  0
   -1.8271   49.8083  -16.1639 H   0  0  0  0  0  0  0  0  0  0  0  0
    0.7381   51.4095  -23.8458 H   0  0  0  0  0  0  0  0  0  0  0  0
   -4.0188   51.7514  -24.4633 H   0  0  0  0  0  0  0  0  0  0  0  0
   -3.0987   51.1273  -22.3042 H   0  0  0  0  0  0  0  0  0  0  0  0
  1 31  1  0  0  0  0
  1  2  2  0  0  0  0
  2 13  1  0  0  0  0
  3  2  1  0  0  0  0
  3 43  1  0  0  0  0
  4  3  2  0  0  0  0
  5  6  1  0  0  0  0
  5  4  1  0  0  0  0
  7  5  1  0  0  0  0
  7 44  1  0  0  0  0
  8 10  1  0  0  0  0
  8  7  1  0  0  0  0
  9  8  1  0  0  0  0
 10 11  2  0  0  0  0
 11 12  1  0  0  0  0
 11  4  1  0  0  0  0
 12  1  1  0  0  0  0
 12 45  1  0  0  0  0
 13 14  1  0  0  0  0
 14 15  1  0  0  0  0
 14 46  1  0  0  0  0
 14 47  1  0  0  0  0
 15 16  1  0  0  0  0
 15 21  1  0  0  0  0
 15 48  1  1  0  0  0
 16 17  1  0  0  0  0
 16 49  1  0  0  0  0
 16 50  1  0  0  0  0
 17 23  1  0  0  0  0
 17 18  1  0  0  0  0
 18 51  1  0  0  0  0
 18 52  1  0  0  0  0
 19 18  1  0  0  0  0
 19 20  2  0  0  0  0
 21 19  1  0  0  0  0
 22 21  1  0  0  0  0
 23 24  1  0  0  0  0
 23 53  1  0  0  0  0
 23 54  1  0  0  0  0
 24 55  1  0  0  0  0
 25 24  2  0  0  0  0
 25 27  1  0  0  0  0
 26 25  1  0  0  0  0
 26 56  1  0  0  0  0
 26 57  1  0  0  0  0
 27 58  1  0  0  0  0
 27 59  1  0  0  0  0
 28 26  1  0  0  0  0
 28 29  1  0  0  0  0
 28 60  1  0  0  0  0
 28 61  1  0  0  0  0
 29 30  1  0  0  0  0
 29 62  1  0  0  0  0
 29 63  1  0  0  0  0
 30 27  1  0  0  0  0
 30 64  1  0  0  0  0
 30 65  1  0  0  0  0
 31 32  1  0  0  0  0
 32 66  1  0  0  0  0
 32 67  1  0  0  0  0
 32 68  1  0  0  0  0
 33 34  1  0  0  0  0
 33 10  1  0  0  0  0
 35 33  1  0  0  0  0
 36 35  2  0  0  0  0
 36 69  1  0  0  0  0
 37 36  1  0  0  0  0
 38 37  1  0  0  0  0
 39 37  2  0  0  0  0
 39 41  1  0  0  0  0
 40 39  1  0  0  0  0
 41 42  2  0  0  0  0
 41 70  1  0  0  0  0
 42 35  1  0  0  0  0
 42 71  1  0  0  0  0
M  END
>  <REMARK>
 VINA RESULT:      -8.1      4.892     10.135
  8 active torsions:
  status: ('A' for Active; 'I' for Inactive)
    1  A    between atoms: O_2  and  C_3 
    2  A    between atoms: C_4  and  O_5 
    3  A    between atoms: O_5  and  C_6 
    4  A    between atoms: C_6  and  C_7 
    5  A    between atoms: N_9  and  C_10 
    6  A    between atoms: C_10  and  C_11 
    7  A    between atoms: C_30  and  N_31 
    8  A    between atoms: N_31  and  C_33 

>  <TORSDO>
F 8

$$$$
