
     RDKit          3D

 30 33  0  0  0  0  0  0  0  0999 V2000
    6.1226    1.7645    1.8305 C   0  0  0  0  0  0  0  0  0  0  0  0
    6.7235    0.4562    1.4247 C   0  0  0  0  0  0  0  0  0  0  0  0
    6.5178    0.0964    0.0549 N   0  0  0  0  0  0  0  0  0  0  0  0
    6.9837    1.1044   -0.8729 C   0  0  0  0  0  0  0  0  0  0  0  0
    8.4668    1.3138   -0.8121 C   0  0  0  0  0  0  0  0  0  0  0  0
    5.1817   -0.2721   -0.2904 C   0  0  0  0  0  0  0  0  0  0  0  0
    4.9504   -0.3310   -1.7807 C   0  0  0  0  0  0  0  0  0  0  0  0
    3.6003   -0.7338   -2.0474 N   0  0  0  0  0  0  0  0  0  0  0  0
    3.1523   -2.1238   -1.9377 C   0  0  0  0  0  0  0  0  0  0  0  0
    1.9814   -2.1859   -0.9811 C   0  0  0  0  0  0  0  0  0  0  0  0
    0.9151   -1.2006   -1.3851 C   0  0  0  0  0  0  0  0  0  0  0  0
    1.2264   -0.0532   -2.0826 C   0  0  0  0  0  0  0  0  0  0  0  0
    2.6066    0.2198   -2.4414 C   0  0  0  0  0  0  0  0  0  0  0  0
    2.9287    1.2405   -3.0680 O   0  0  0  0  0  0  0  0  0  0  0  0
    0.0210    0.5904   -2.2717 C   0  0  0  0  0  0  0  0  0  0  0  0
   -0.0871    1.8971   -2.9659 C   0  0  0  0  0  0  0  0  0  0  0  0
   -0.9825   -0.1562   -1.7017 C   0  0  0  0  0  0  0  0  0  0  0  0
   -2.3959    0.0436   -1.6411 C   0  0  0  0  0  0  0  0  0  0  0  0
   -3.1470    0.9123   -1.0691 C   0  0  0  0  0  0  0  0  0  0  0  0
   -4.6195    0.8684   -1.1667 C   0  0  0  0  0  0  0  0  0  0  0  0
   -5.3199    0.0026   -1.7726 O   0  0  0  0  0  0  0  0  0  0  0  0
   -5.1535    1.9740   -0.4592 N   0  0  0  0  0  0  0  0  0  0  0  0
   -4.0789    2.7214    0.0849 C   0  0  0  0  0  0  0  0  0  0  0  0
   -4.0981    3.8829    0.8431 C   0  0  0  0  0  0  0  0  0  0  0  0
   -2.9188    4.4751    1.2783 C   0  0  0  0  0  0  0  0  0  0  0  0
   -1.7319    3.8462    0.9163 C   0  0  0  0  0  0  0  0  0  0  0  0
   -0.5827    4.4385    1.3510 F   0  0  0  0  0  0  0  0  0  0  0  0
   -1.7370    2.6950    0.1643 C   0  0  0  0  0  0  0  0  0  0  0  0
   -2.8781    2.1019   -0.2698 C   0  0  0  0  0  0  0  0  0  0  0  0
   -0.3868   -1.2656   -1.1578 N   0  0  0  0  0  0  0  0  0  0  0  0
  1  2  1  0
  2  3  1  0
  3  4  1  0
  4  5  1  0
  3  6  1  0
  6  7  1  0
  7  8  1  0
  8  9  1  0
  9 10  1  0
 10 11  1  0
 11 12  2  0
 12 13  1  0
 13 14  2  0
 12 15  1  0
 15 16  1  0
 15 17  2  0
 17 18  1  0
 18 19  2  3
 19 20  1  0
 20 21  2  0
 20 22  1  0
 22 23  1  0
 23 24  1  0
 24 25  2  0
 25 26  1  0
 26 27  1  0
 26 28  2  0
 28 29  1  0
 17 30  1  0
 13  8  1  0
 29 19  1  0
 30 11  1  0
 29 23  2  0
M  END
>  <Smiles>  (1) 
CCN(CC)CCN1CCc2c(C1=O)c(C)c(C=C1C(=O)Nc3ccc(F)cc13)[nH]2

>  <GEO>  (1) 
0.97 1.12 2.91 3.12 -1.35 -1.16 -3.13

>  <target1>  (1) 
P10721_WT

>  <target2>  (1) 
P10721_T670I

$$$$
