
     RDKit          3D

 30 33  0  0  0  0  0  0  0  0999 V2000
   -7.5906    3.0175    1.5717 C   0  0  0  0  0  0  0  0  0  0  0  0
   -7.5544    1.7528    0.9840 O   0  0  0  0  0  0  0  0  0  0  0  0
   -6.3620    1.1163    0.6773 C   0  0  0  0  0  0  0  0  0  0  0  0
   -5.1207    1.6469    0.9373 C   0  0  0  0  0  0  0  0  0  0  0  0
   -3.9433    0.9773    0.6149 C   0  0  0  0  0  0  0  0  0  0  0  0
   -4.0178   -0.2541    0.0176 C   0  0  0  0  0  0  0  0  0  0  0  0
   -2.8922   -1.0332   -0.3615 N   0  0  0  0  0  0  0  0  0  0  0  0
   -2.9513   -2.1655   -1.2084 C   0  0  0  0  0  0  0  0  0  0  0  0
   -4.0468   -2.5402   -1.6631 O   0  0  0  0  0  0  0  0  0  0  0  0
   -1.7570   -2.8360   -1.5105 N   0  0  0  0  0  0  0  0  0  0  0  0
   -1.7118   -3.9620   -2.3683 C   0  0  0  0  0  0  0  0  0  0  0  0
   -0.5605   -4.7482   -2.2929 C   0  0  0  0  0  0  0  0  0  0  0  0
   -0.3841   -5.8768   -3.0641 C   0  0  0  0  0  0  0  0  0  0  0  0
   -1.3988   -6.2193   -3.9351 C   0  0  0  0  0  0  0  0  0  0  0  0
   -2.5338   -5.4662   -4.0264 C   0  0  0  0  0  0  0  0  0  0  0  0
   -2.6988   -4.3261   -3.2399 C   0  0  0  0  0  0  0  0  0  0  0  0
   -0.9825   -7.4331   -4.6240 C   0  0  0  0  0  0  0  0  0  0  0  0
   -1.5948   -8.1521   -5.5396 C   0  0  0  0  0  0  0  0  0  0  0  0
   -1.0941   -9.3658   -6.1434 C   0  0  0  0  0  0  0  0  0  0  0  0
   -1.5856   -9.9075   -7.3293 C   0  0  0  0  0  0  0  0  0  0  0  0
   -0.8893  -11.0756   -7.6386 C   0  0  0  0  0  0  0  0  0  0  0  0
    0.0299  -11.2125   -6.6027 C   0  0  0  0  0  0  0  0  0  0  0  0
   -0.1230  -10.2031   -5.7606 N   0  0  0  0  0  0  0  0  0  0  0  0
    0.3465   -7.7935   -4.1085 C   0  0  0  0  0  0  0  0  0  0  0  0
    1.0766   -8.7594   -4.4180 O   0  0  0  0  0  0  0  0  0  0  0  0
    0.6881   -6.8198   -3.1526 N   0  0  0  0  0  0  0  0  0  0  0  0
   -5.2698   -0.7754   -0.2375 C   0  0  0  0  0  0  0  0  0  0  0  0
   -6.4333   -0.1212    0.0772 C   0  0  0  0  0  0  0  0  0  0  0  0
   -7.6515   -0.7020   -0.2066 O   0  0  0  0  0  0  0  0  0  0  0  0
   -7.7993   -1.9765   -0.7603 C   0  0  0  0  0  0  0  0  0  0  0  0
  1  2  1  0
  2  3  1  0
  3  4  1  0
  4  5  2  0
  5  6  1  0
  6  7  1  0
  7  8  1  0
  8  9  2  0
  8 10  1  0
 10 11  1  0
 11 12  2  0
 12 13  1  0
 13 14  2  0
 14 15  1  0
 15 16  2  0
 14 17  1  0
 17 18  2  3
 18 19  1  0
 19 20  2  0
 20 21  1  0
 21 22  2  0
 22 23  1  0
 17 24  1  0
 24 25  2  0
 24 26  1  0
  6 27  2  0
 27 28  1  0
 28 29  1  0
 29 30  1  0
 28  3  2  0
 16 11  1  0
 23 19  1  0
 26 13  1  0
M  END
>  <Smiles>  (1) 
COc1ccc(NC(=O)Nc2cc3c(cc2)C(=Cc2ccc[nH]2)C(=O)N3)cc1OC

>  <GEO>  (1) 
0.02 -2.91 -0.01 -3.12 -2.84 -3.12 -2.84 0.05

>  <target1>  (1) 
P10721_WT

>  <target2>  (1) 
P10721_T670I

$$$$
