
     RDKit          3D

 33 37  0  0  0  0  0  0  0  0999 V2000
    1.1047    1.6923    0.7905 C   0  0  0  0  0  0  0  0  0  0  0  0
    0.3185    0.4300    0.5953 C   0  0  0  0  0  0  0  0  0  0  0  0
    0.8217   -0.8517    0.4406 C   0  0  0  0  0  0  0  0  0  0  0  0
    2.2371   -1.2027    0.4404 C   0  0  0  0  0  0  0  0  0  0  0  0
    3.0843   -0.5669    1.1275 O   0  0  0  0  0  0  0  0  0  0  0  0
    2.7017   -2.2891   -0.3485 N   0  0  0  0  0  0  0  0  0  0  0  0
    4.0775   -2.6465   -0.4726 C   0  0  0  0  0  0  0  0  0  0  0  0
    4.6340   -3.3198    0.7603 C   0  0  0  0  0  0  0  0  0  0  0  0
    5.9956   -3.9207    0.5127 C   0  0  0  0  0  0  0  0  0  0  0  0
    6.9567   -3.0105   -0.0349 N   0  0  0  0  0  0  0  0  0  0  0  0
    8.1451   -3.6069   -0.5505 C   0  0  0  0  0  0  0  0  0  0  0  0
    8.2523   -3.6691   -2.0231 C   0  0  0  0  0  0  0  0  0  0  0  0
    7.4696   -2.8035   -2.7328 O   0  0  0  0  0  0  0  0  0  0  0  0
    7.3114   -1.6115   -2.0172 C   0  0  0  0  0  0  0  0  0  0  0  0
    6.4126   -1.9580   -0.8280 C   0  0  0  0  0  0  0  0  0  0  0  0
   -0.2450   -1.7486    0.2854 C   0  0  0  0  0  0  0  0  0  0  0  0
   -1.3818   -0.9814    0.3504 C   0  0  0  0  0  0  0  0  0  0  0  0
   -1.0164    0.2845    0.5317 N   0  0  0  0  0  0  0  0  0  0  0  0
   -2.6841   -1.6153    0.2230 C   0  0  0  0  0  0  0  0  0  0  0  0
   -3.9487   -0.9074    0.2768 C   0  0  0  0  0  0  0  0  0  0  0  0
   -4.9470   -1.2050    1.1894 C   0  0  0  0  0  0  0  0  0  0  0  0
   -4.9297   -2.1957    2.1868 O   0  0  0  0  0  0  0  0  0  0  0  0
   -5.9999   -0.4019    1.0154 N   0  0  0  0  0  0  0  0  0  0  0  0
   -5.7058    0.4134    0.0061 C   0  0  0  0  0  0  0  0  0  0  0  0
   -6.4943    1.4233   -0.5407 C   0  0  0  0  0  0  0  0  0  0  0  0
   -5.9683    2.1486   -1.6012 C   0  0  0  0  0  0  0  0  0  0  0  0
   -4.6996    1.8513   -2.0739 C   0  0  0  0  0  0  0  0  0  0  0  0
   -4.2119    2.5747   -3.1094 F   0  0  0  0  0  0  0  0  0  0  0  0
   -3.9430    0.8451   -1.5111 C   0  0  0  0  0  0  0  0  0  0  0  0
   -4.4421    0.1263   -0.4737 C   0  0  0  0  0  0  0  0  0  0  0  0
   -2.6835   -2.9288    0.0478 C   0  0  0  0  0  0  0  0  0  0  0  0
   -1.5202   -3.7978   -0.0299 C   0  0  0  0  0  0  0  0  0  0  0  0
   -0.1833   -3.1973    0.0934 C   0  0  0  0  0  0  0  0  0  0  0  0
  1  2  1  0
  2  3  2  0
  3  4  1  0
  4  5  2  0
  4  6  1  0
  6  7  1  0
  7  8  1  0
  8  9  1  0
  9 10  1  0
 10 11  1  0
 11 12  1  0
 12 13  1  0
 13 14  1  0
 14 15  1  0
  3 16  1  0
 16 17  2  0
 17 18  1  0
 17 19  1  0
 19 20  1  0
 20 21  2  0
 21 22  1  0
 21 23  1  0
 23 24  1  0
 24 25  1  0
 25 26  2  0
 26 27  1  0
 27 28  1  0
 27 29  2  0
 29 30  1  0
 19 31  2  0
 31 32  1  0
 32 33  1  0
 18  2  1  0
 30 20  1  0
 15 10  1  0
 33 16  1  0
 30 24  2  0
M  END
>  <Smiles>  (1) 
Cc1c(C(=O)NCCCN2CCOCC2)c2c([nH]1)C(c1c(O)[nH]c3ccc(F)cc13)=CCC2

>  <GEO>  (1) 
0.56 3.07 1.29 2.95 0.93 -2.91 -2.14

>  <target1>  (1) 
P10721_WT

>  <target2>  (1) 
P10721_T670I

$$$$
