
     RDKit          3D

 31 34  0  0  0  0  0  0  0  0999 V2000
    6.9335   -1.8866    2.7679 C   0  0  0  0  0  0  0  0  0  0  0  0
    7.2623   -2.2130    1.3091 C   0  0  0  0  0  0  0  0  0  0  0  0
    7.0169   -1.0727    0.4807 N   0  0  0  0  0  0  0  0  0  0  0  0
    7.1381   -1.4712   -0.9065 C   0  0  0  0  0  0  0  0  0  0  0  0
    6.6857   -0.3706   -1.8484 C   0  0  0  0  0  0  0  0  0  0  0  0
    5.6743   -0.5744    0.7386 C   0  0  0  0  0  0  0  0  0  0  0  0
    5.5730   -0.0874    2.1475 C   0  0  0  0  0  0  0  0  0  0  0  0
    4.2292    0.3736    2.3883 N   0  0  0  0  0  0  0  0  0  0  0  0
    3.7116    1.6255    1.9925 C   0  0  0  0  0  0  0  0  0  0  0  0
    4.4669    2.4862    1.4606 O   0  0  0  0  0  0  0  0  0  0  0  0
    2.2784    1.9097    2.2104 C   0  0  0  0  0  0  0  0  0  0  0  0
    1.4899    1.3911    3.2448 C   0  0  0  0  0  0  0  0  0  0  0  0
    1.9419    0.4594    4.3174 C   0  0  0  0  0  0  0  0  0  0  0  0
    0.2346    1.8774    3.1138 N   0  0  0  0  0  0  0  0  0  0  0  0
    0.2284    2.6752    2.0352 C   0  0  0  0  0  0  0  0  0  0  0  0
    1.4726    2.7251    1.4443 C   0  0  0  0  0  0  0  0  0  0  0  0
    1.7815    3.5153    0.2451 C   0  0  0  0  0  0  0  0  0  0  0  0
    0.5881    4.1627   -0.3729 C   0  0  0  0  0  0  0  0  0  0  0  0
   -0.3908    4.6932    0.6834 C   0  0  0  0  0  0  0  0  0  0  0  0
   -0.8314    3.4561    1.4249 C   0  0  0  0  0  0  0  0  0  0  0  0
   -2.0935    3.1487    1.4832 C   0  0  0  0  0  0  0  0  0  0  0  0
   -3.2939    3.9280    1.2126 C   0  0  0  0  0  0  0  0  0  0  0  0
   -3.3315    5.1282    0.8496 O   0  0  0  0  0  0  0  0  0  0  0  0
   -4.4439    3.1379    1.4172 N   0  0  0  0  0  0  0  0  0  0  0  0
   -3.9918    1.8318    1.8247 C   0  0  0  0  0  0  0  0  0  0  0  0
   -4.7369    0.7123    2.1406 C   0  0  0  0  0  0  0  0  0  0  0  0
   -4.0868   -0.4474    2.5098 C   0  0  0  0  0  0  0  0  0  0  0  0
   -2.6897   -0.4958    2.5656 C   0  0  0  0  0  0  0  0  0  0  0  0
   -2.0575   -1.6488    2.9323 F   0  0  0  0  0  0  0  0  0  0  0  0
   -1.9522    0.6429    2.2437 C   0  0  0  0  0  0  0  0  0  0  0  0
   -2.6089    1.8168    1.8700 C   0  0  0  0  0  0  0  0  0  0  0  0
  1  2  1  0
  2  3  1  0
  3  4  1  0
  4  5  1  0
  3  6  1  0
  6  7  1  0
  7  8  1  0
  8  9  1  0
  9 10  2  0
  9 11  1  0
 11 12  2  0
 12 13  1  0
 12 14  1  0
 14 15  1  0
 15 16  2  0
 16 17  1  0
 17 18  1  0
 18 19  1  0
 19 20  1  0
 20 21  2  3
 21 22  1  0
 22 23  2  0
 22 24  1  0
 24 25  1  0
 25 26  1  0
 26 27  2  0
 27 28  1  0
 28 29  1  0
 28 30  2  0
 30 31  1  0
 16 11  1  0
 31 21  1  0
 20 15  1  0
 31 25  2  0
M  END
>  <Smiles>  (1) 
CCN(CC)CCNC(=O)c1c(C)[nH]c2c1CCCC2=C1C(=O)Nc2ccc(F)cc12

>  <GEO>  (1) 
-2.99 2.99 1.12 -3.12 -1.39 -0.09 0.53 -0.28

>  <target1>  (1) 
P10721_WT

>  <target2>  (1) 
P10721_T670I

$$$$
