
     RDKit          3D

 37 41  0  0  0  0  0  0  0  0999 V2000
   -7.3533   -2.1403   -1.5117 C   0  0  0  0  0  0  0  0  0  0  0  0
   -8.1179   -0.8488   -1.6543 C   0  0  0  0  0  0  0  0  0  0  0  0
   -7.2183    0.2374   -1.9435 N   0  0  0  0  0  0  0  0  0  0  0  0
   -7.9077    1.4805   -1.9075 C   0  0  0  0  0  0  0  0  0  0  0  0
   -7.0302    2.6843   -2.0197 C   0  0  0  0  0  0  0  0  0  0  0  0
   -6.6344   -0.0104   -3.2289 C   0  0  0  0  0  0  0  0  0  0  0  0
   -7.7317    0.0269   -4.2601 C   0  0  0  0  0  0  0  0  0  0  0  0
   -7.3517   -0.2482   -5.5838 N   0  0  0  0  0  0  0  0  0  0  0  0
   -6.7493    0.5258   -6.5580 C   0  0  0  0  0  0  0  0  0  0  0  0
   -6.4601    1.7433   -6.5152 O   0  0  0  0  0  0  0  0  0  0  0  0
   -6.3862   -0.1490   -7.8318 C   0  0  0  0  0  0  0  0  0  0  0  0
   -7.0551   -1.2538   -8.3401 C   0  0  0  0  0  0  0  0  0  0  0  0
   -8.2073   -1.9841   -7.7857 C   0  0  0  0  0  0  0  0  0  0  0  0
   -6.4370   -1.5817   -9.5140 N   0  0  0  0  0  0  0  0  0  0  0  0
   -5.4268   -0.7175   -9.7255 C   0  0  0  0  0  0  0  0  0  0  0  0
   -5.3709    0.1822   -8.6989 C   0  0  0  0  0  0  0  0  0  0  0  0
   -4.3357    1.2273   -8.7243 C   0  0  0  0  0  0  0  0  0  0  0  0
   -4.3026    1.7757  -10.1388 C   0  0  0  0  0  0  0  0  0  0  0  0
   -4.0024    0.7508  -11.1800 C   0  0  0  0  0  0  0  0  0  0  0  0
   -4.4684   -0.6202  -10.8180 C   0  0  0  0  0  0  0  0  0  0  0  0
   -4.0080   -1.6674  -11.4718 C   0  0  0  0  0  0  0  0  0  0  0  0
   -3.2704   -1.7512  -12.7222 C   0  0  0  0  0  0  0  0  0  0  0  0
   -2.9232   -0.8184  -13.4581 O   0  0  0  0  0  0  0  0  0  0  0  0
   -3.0095   -3.1333  -12.9606 N   0  0  0  0  0  0  0  0  0  0  0  0
   -3.5555   -3.9152  -11.9071 C   0  0  0  0  0  0  0  0  0  0  0  0
   -3.5399   -5.2871  -11.7191 C   0  0  0  0  0  0  0  0  0  0  0  0
   -4.1545   -5.8156  -10.5781 C   0  0  0  0  0  0  0  0  0  0  0  0
   -4.7653   -4.9520   -9.6615 C   0  0  0  0  0  0  0  0  0  0  0  0
   -5.3786   -5.4670   -8.5219 O   0  0  0  0  0  0  0  0  0  0  0  0
   -6.5975   -4.9697   -8.0910 C   0  0  0  0  0  0  0  0  0  0  0  0
   -7.6354   -4.9114   -9.0176 C   0  0  0  0  0  0  0  0  0  0  0  0
   -8.8888   -4.4178   -8.6390 C   0  0  0  0  0  0  0  0  0  0  0  0
   -9.0783   -3.9972   -7.3564 C   0  0  0  0  0  0  0  0  0  0  0  0
   -8.0759   -4.0439   -6.4273 C   0  0  0  0  0  0  0  0  0  0  0  0
   -6.8303   -4.5335   -6.8007 C   0  0  0  0  0  0  0  0  0  0  0  0
   -4.7606   -3.5928   -9.8833 C   0  0  0  0  0  0  0  0  0  0  0  0
   -4.1518   -3.0480  -11.0171 C   0  0  0  0  0  0  0  0  0  0  0  0
  1  2  1  0
  2  3  1  0
  3  4  1  0
  4  5  1  0
  3  6  1  0
  6  7  1  0
  7  8  1  0
  8  9  1  0
  9 10  2  0
  9 11  1  0
 11 12  2  0
 12 13  1  0
 12 14  1  0
 14 15  1  0
 15 16  2  0
 16 17  1  0
 17 18  1  0
 18 19  1  0
 19 20  1  0
 20 21  2  3
 21 22  1  0
 22 23  2  0
 22 24  1  0
 24 25  1  0
 25 26  1  0
 26 27  2  0
 27 28  1  0
 28 29  1  0
 29 30  1  0
 30 31  2  0
 31 32  1  0
 32 33  2  0
 33 34  1  0
 34 35  2  0
 28 36  2  0
 36 37  1  0
 16 11  1  0
 37 21  1  0
 20 15  1  0
 37 25  2  0
 35 30  1  0
M  END
>  <Smiles>  (1) 
CCN(CC)CCNC(=O)c1c(C)[nH]c2c1CCCC2=C1C(=O)Nc2ccc(Oc3ccccc3)cc12

>  <GEO>  (1) 
-3.01 3.01 1.12 -3.10 -1.39 -0.09 0.49 -0.24 -2.41 0.91

>  <target1>  (1) 
P10721_WT

>  <target2>  (1) 
P10721_T670I

$$$$
