
     RDKit          3D

 33 36  0  0  0  0  0  0  0  0999 V2000
   -6.5124   -0.7930    1.5788 C   0  0  0  0  0  0  0  0  0  0  0  0
   -6.4848   -0.4603    0.1050 C   0  0  0  0  0  0  0  0  0  0  0  0
   -7.8802   -0.7366   -0.4259 C   0  0  0  0  0  0  0  0  0  0  0  0
   -5.5079   -1.2801   -0.6840 C   0  0  0  0  0  0  0  0  0  0  0  0
   -4.4770   -0.5239   -1.4279 C   0  0  0  0  0  0  0  0  0  0  0  0
   -3.1429   -0.5966   -0.9249 N   0  0  0  0  0  0  0  0  0  0  0  0
   -1.9727   -0.6391   -1.6895 C   0  0  0  0  0  0  0  0  0  0  0  0
   -2.0633   -0.7116   -2.9424 O   0  0  0  0  0  0  0  0  0  0  0  0
   -0.6305   -0.6044   -1.1212 C   0  0  0  0  0  0  0  0  0  0  0  0
   -0.4195    0.0836    0.0525 C   0  0  0  0  0  0  0  0  0  0  0  0
    0.8055    0.1836    0.6795 C   0  0  0  0  0  0  0  0  0  0  0  0
    1.8827   -0.4612    0.0670 C   0  0  0  0  0  0  0  0  0  0  0  0
    1.7098   -1.1638   -1.1152 C   0  0  0  0  0  0  0  0  0  0  0  0
    2.8339   -1.8058   -1.7056 N   0  0  0  0  0  0  0  0  0  0  0  0
    3.9403   -2.0900   -0.8576 C   0  0  0  0  0  0  0  0  0  0  0  0
    4.0426   -1.4589    0.3259 N   0  0  0  0  0  0  0  0  0  0  0  0
    5.0548   -1.6681    1.1869 C   0  0  0  0  0  0  0  0  0  0  0  0
    6.0231   -2.5788    0.8162 C   0  0  0  0  0  0  0  0  0  0  0  0
    5.9466   -3.2413   -0.3892 C   0  0  0  0  0  0  0  0  0  0  0  0
    6.9371   -4.2129   -0.8360 C   0  0  0  0  0  0  0  0  0  0  0  0
    6.6516   -4.9948   -1.9170 C   0  0  0  0  0  0  0  0  0  0  0  0
    7.5366   -5.9230   -2.3845 N   0  0  0  0  0  0  0  0  0  0  0  0
    8.7165   -6.0632   -1.7579 C   0  0  0  0  0  0  0  0  0  0  0  0
    9.0525   -5.2994   -0.6639 C   0  0  0  0  0  0  0  0  0  0  0  0
    8.1486   -4.3593   -0.1954 C   0  0  0  0  0  0  0  0  0  0  0  0
    4.9002   -2.9709   -1.1886 N   0  0  0  0  0  0  0  0  0  0  0  0
    0.4490   -1.2325   -1.7065 C   0  0  0  0  0  0  0  0  0  0  0  0
   -4.8653    0.8092   -1.9507 C   0  0  0  0  0  0  0  0  0  0  0  0
   -6.1149    1.3924   -1.3765 C   0  0  0  0  0  0  0  0  0  0  0  0
   -5.9488    2.9152   -1.3294 C   0  0  0  0  0  0  0  0  0  0  0  0
   -7.3541    1.0718   -2.1765 C   0  0  0  0  0  0  0  0  0  0  0  0
   -6.2643    0.9613   -0.0232 N   0  0  0  0  0  0  0  0  0  0  0  0
   -5.2139    1.3419    0.7294 O   0  0  0  0  0  1  0  0  0  0  0  0
  1  2  1  0
  2  3  1  0
  2  4  1  0
  4  5  1  0
  5  6  1  0
  6  7  1  0
  7  8  2  0
  7  9  1  0
  9 10  2  0
 10 11  1  0
 11 12  2  0
 12 13  1  0
 13 14  1  0
 14 15  1  0
 15 16  2  0
 16 17  1  0
 17 18  2  0
 18 19  1  0
 19 20  1  0
 20 21  1  0
 21 22  2  0
 22 23  1  0
 23 24  2  0
 24 25  1  0
 19 26  2  0
 13 27  2  0
  5 28  1  0
 28 29  1  0
 29 30  1  0
 29 31  1  0
 29 32  1  0
 32 33  1  0
 32  2  1  0
 27  9  1  0
 26 15  1  0
 25 20  2  0
M  RAD  1  33   2
M  END
>  <Smiles>  (1) 
CC1(C)CC(NC(=O)c2cccc(Nc3nccc(-c4cnccc4)n3)c2)CC(C)(C)N1[O]

>  <GEO>  (1) 
2.50 -0.09 -0.54 0.37 -0.30 2.93

>  <target1>  (1) 
P10721_WT

>  <target2>  (1) 
P10721_T670I

$$$$
