
     RDKit          3D

 30 33  0  0  0  0  0  0  0  0999 V2000
   -4.1537   -1.6382    1.9201 N   0  0  0  0  0  0  0  0  0  0  0  0
   -5.3125   -1.0231    1.3733 C   0  0  0  0  0  0  0  0  0  0  0  0
   -5.3668   -0.1551    0.3043 C   0  0  0  0  0  0  0  0  0  0  0  0
   -4.3783    0.3463   -0.5040 C   0  0  0  0  0  0  0  0  0  0  0  0
   -2.9691    0.0427   -0.3744 C   0  0  0  0  0  0  0  0  0  0  0  0
   -2.0021    0.9474   -0.0037 C   0  0  0  0  0  0  0  0  0  0  0  0
   -0.6641    0.6041    0.1054 C   0  0  0  0  0  0  0  0  0  0  0  0
   -0.2851   -0.6992   -0.1692 C   0  0  0  0  0  0  0  0  0  0  0  0
    1.0968   -1.0587   -0.0579 N   0  0  0  0  0  0  0  0  0  0  0  0
    1.5999   -2.3397   -0.4350 C   0  0  0  0  0  0  0  0  0  0  0  0
    0.8761   -3.1968   -0.9755 O   0  0  0  0  0  0  0  0  0  0  0  0
    2.9688   -2.6057   -0.1697 N   0  0  0  0  0  0  0  0  0  0  0  0
    3.6119   -3.8031   -0.5975 C   0  0  0  0  0  0  0  0  0  0  0  0
    4.9029   -4.0952   -0.1715 C   0  0  0  0  0  0  0  0  0  0  0  0
    5.5619   -3.1295    0.7242 C   0  0  0  0  0  0  0  0  0  0  0  0
    4.8390   -1.9347    0.8196 F   0  0  0  0  0  0  0  0  0  0  0  0
    5.6943   -3.6154    2.0216 F   0  0  0  0  0  0  0  0  0  0  0  0
    6.8213   -2.8040    0.2621 F   0  0  0  0  0  0  0  0  0  0  0  0
    5.4877   -5.2650   -0.6097 C   0  0  0  0  0  0  0  0  0  0  0  0
    4.7949   -6.1119   -1.4489 C   0  0  0  0  0  0  0  0  0  0  0  0
    3.5127   -5.8423   -1.8845 C   0  0  0  0  0  0  0  0  0  0  0  0
    2.9291   -4.6661   -1.4418 C   0  0  0  0  0  0  0  0  0  0  0  0
   -1.2462   -1.6392   -0.5480 C   0  0  0  0  0  0  0  0  0  0  0  0
   -2.5662   -1.2521   -0.6433 C   0  0  0  0  0  0  0  0  0  0  0  0
   -4.7494    1.2131   -1.5168 C   0  0  0  0  0  0  0  0  0  0  0  0
   -6.0752    1.5506   -1.6926 C   0  0  0  0  0  0  0  0  0  0  0  0
   -7.0378    1.0221   -0.8551 C   0  0  0  0  0  0  0  0  0  0  0  0
   -6.6999    0.1604    0.1576 C   0  0  0  0  0  0  0  0  0  0  0  0
   -7.4195   -0.4858    1.0936 N   0  0  0  0  0  0  0  0  0  0  0  0
   -6.5739   -1.1907    1.8142 N   0  0  0  0  0  0  0  0  0  0  0  0
  1  2  1  0
  2  3  2  0
  3  4  1  0
  4  5  1  0
  5  6  1  0
  6  7  2  0
  7  8  1  0
  8  9  1  0
  9 10  1  0
 10 11  2  0
 10 12  1  0
 12 13  1  0
 13 14  1  0
 14 15  1  0
 15 16  1  0
 15 17  1  0
 15 18  1  0
 14 19  2  0
 19 20  1  0
 20 21  2  0
 21 22  1  0
  8 23  2  0
 23 24  1  0
  4 25  2  0
 25 26  1  0
 26 27  2  0
 27 28  1  0
 28 29  2  0
 29 30  1  0
 30  2  1  0
 28  3  1  0
 24  5  2  0
 22 13  2  0
M  END
>  <Smiles>  (1) 
Nc1c2c(-c3ccc(NC(=O)Nc4c(C(F)(F)F)cccc4)cc3)cccc2n[nH]1

>  <GEO>  (1) 
-1.97 -3.04 0.09 -3.05 -3.00 -0.18

>  <target1>  (1) 
P10721_WT

>  <target2>  (1) 
P10721_T670I

$$$$
