
     RDKit          3D

 37 41  0  0  0  0  0  0  0  0999 V2000
   -3.7639   -1.8001    1.7697 C   0  0  0  0  0  0  0  0  0  0  0  0
   -2.4344   -1.4927    1.1842 C   0  0  0  0  0  0  0  0  0  0  0  0
   -2.3330   -0.5804    0.0890 C   0  0  0  0  0  0  0  0  0  0  0  0
   -3.3995   -0.0149   -0.3854 N   0  0  0  0  0  0  0  0  0  0  0  0
   -4.4759    0.5567   -0.8649 C   0  0  0  0  0  0  0  0  0  0  0  0
   -4.4194    1.6449   -1.6935 N   0  0  0  0  0  0  0  0  0  0  0  0
   -5.5510    2.1959   -2.1673 C   0  0  0  0  0  0  0  0  0  0  0  0
   -6.7792    1.6850   -1.8349 C   0  0  0  0  0  0  0  0  0  0  0  0
   -6.8563    0.5978   -1.0077 C   0  0  0  0  0  0  0  0  0  0  0  0
   -8.1154   -0.0192   -0.5921 C   0  0  0  0  0  0  0  0  0  0  0  0
   -8.2577   -0.6239    0.6635 C   0  0  0  0  0  0  0  0  0  0  0  0
   -9.4678   -1.1953    0.9987 C   0  0  0  0  0  0  0  0  0  0  0  0
  -10.5343   -1.1974    0.1593 C   0  0  0  0  0  0  0  0  0  0  0  0
  -10.4036   -0.6089   -1.0671 N   0  0  0  0  0  0  0  0  0  0  0  0
   -9.2181   -0.0419   -1.4118 C   0  0  0  0  0  0  0  0  0  0  0  0
   -5.7255    0.0613   -0.5447 N   0  0  0  0  0  0  0  0  0  0  0  0
   -1.0461   -0.3345   -0.4257 C   0  0  0  0  0  0  0  0  0  0  0  0
    0.0841   -0.9066    0.0567 C   0  0  0  0  0  0  0  0  0  0  0  0
    1.4033   -0.7308   -0.4206 N   0  0  0  0  0  0  0  0  0  0  0  0
    1.6391    0.1871   -1.4989 C   0  0  0  0  0  0  0  0  0  0  0  0
    0.6794    0.8439   -2.0306 O   0  0  0  0  0  0  0  0  0  0  0  0
    3.0048    0.4024   -2.0237 C   0  0  0  0  0  0  0  0  0  0  0  0
    3.9049   -0.6171   -2.1302 C   0  0  0  0  0  0  0  0  0  0  0  0
    5.1757   -0.3970   -2.6668 C   0  0  0  0  0  0  0  0  0  0  0  0
    5.5164    0.8786   -3.0928 C   0  0  0  0  0  0  0  0  0  0  0  0
    6.8836    1.0881   -3.6750 C   0  0  0  0  0  0  0  0  0  0  0  0
    7.5392    2.1993   -2.9923 N   0  0  0  0  0  0  0  0  0  0  0  0
    7.8464    1.7760   -1.6208 C   0  0  0  0  0  0  0  0  0  0  0  0
    8.5766    2.8933   -0.9471 C   0  0  0  0  0  0  0  0  0  0  0  0
    8.1130    4.2042   -1.1993 N   0  0  0  0  0  0  0  0  0  0  0  0
    8.0628    5.0814   -0.0555 C   0  0  0  0  0  0  0  0  0  0  0  0
    7.1353    4.4161   -2.1931 C   0  0  0  0  0  0  0  0  0  0  0  0
    6.4921    3.2185   -2.8008 C   0  0  0  0  0  0  0  0  0  0  0  0
    4.6042    1.9050   -2.9819 C   0  0  0  0  0  0  0  0  0  0  0  0
    3.3541    1.6780   -2.4517 C   0  0  0  0  0  0  0  0  0  0  0  0
   -0.0535   -1.7955    1.1317 C   0  0  0  0  0  0  0  0  0  0  0  0
   -1.2844   -2.0713    1.6699 C   0  0  0  0  0  0  0  0  0  0  0  0
  1  2  1  0
  2  3  2  0
  3  4  1  0
  4  5  1  0
  5  6  2  0
  6  7  1  0
  7  8  2  0
  8  9  1  0
  9 10  1  0
 10 11  2  0
 11 12  1  0
 12 13  2  0
 13 14  1  0
 14 15  2  0
  9 16  2  0
  3 17  1  0
 17 18  2  0
 18 19  1  0
 19 20  1  0
 20 21  2  0
 20 22  1  0
 22 23  1  0
 23 24  2  0
 24 25  1  0
 25 26  1  0
 26 27  1  0
 27 28  1  0
 28 29  1  0
 29 30  1  0
 30 31  1  0
 30 32  1  0
 32 33  1  0
 25 34  2  0
 34 35  1  0
 18 36  1  0
 36 37  2  0
 37  2  1  0
 16  5  1  0
 35 22  2  0
 15 10  1  0
 33 27  1  0
M  END
>  <Smiles>  (1) 
Cc1c(Nc2nccc(-c3cccnc3)n2)cc(NC(=O)c2ccc(CN3CCN(C)CC3)cc2)cc1

>  <GEO>  (1) 
2.95 -0.07 -2.58 0.05 0.00 0.65 -2.23 1.21

>  <target1>  (1) 
P10721_WT

>  <target2>  (1) 
P10721_T670I

$$$$
