
     RDKit          3D

 34 37  0  0  0  0  0  0  0  0999 V2000
    8.0664    2.6922   -1.4025 C   0  0  0  0  0  0  0  0  0  0  0  0
    7.1861    3.0978   -0.3375 N   0  0  0  0  0  0  0  0  0  0  0  0
    7.6359    2.4803    0.9092 C   0  0  0  0  0  0  0  0  0  0  0  0
    5.8616    2.5710   -0.6205 C   0  0  0  0  0  0  0  0  0  0  0  0
    4.8573    3.0707    0.3505 C   0  0  0  0  0  0  0  0  0  0  0  0
    4.1585    2.3289    1.0832 O   0  0  0  0  0  0  0  0  0  0  0  0
    4.6637    4.4724    0.4696 N   0  0  0  0  0  0  0  0  0  0  0  0
    5.4173    5.4503   -0.2954 C   0  0  0  0  0  0  0  0  0  0  0  0
    4.4384    6.0548   -1.2764 C   0  0  0  0  0  0  0  0  0  0  0  0
    3.2445    6.5545   -0.5697 C   0  0  0  0  0  0  0  0  0  0  0  0
    3.1887    8.0136   -0.3402 C   0  0  0  0  0  0  0  0  0  0  0  0
    4.1314    8.5809    0.4980 C   0  0  0  0  0  0  0  0  0  0  0  0
    4.1585    9.9333    0.7718 C   0  0  0  0  0  0  0  0  0  0  0  0
    5.1626   10.4569    1.6491 N   0  0  0  0  0  0  0  0  0  0  0  0
    6.0400    9.4998    2.2499 C   0  0  0  0  0  0  0  0  0  0  0  0
    5.9421    8.2578    2.0247 O   0  0  0  0  0  0  0  0  0  0  0  0
    7.0862    9.9332    3.1510 C   0  0  0  0  0  0  0  0  0  0  0  0
    7.5474    9.1712    4.1845 N   0  0  0  0  0  0  0  0  0  0  0  0
    8.5132    9.8376    4.8400 C   0  0  0  0  0  0  0  0  0  0  0  0
    9.2338    9.3528    5.9849 C   0  0  0  0  0  0  0  0  0  0  0  0
    9.8323    8.9714    6.9183 N   0  0  0  0  0  0  0  0  0  0  0  0
    8.6561   11.0540    4.1909 C   0  0  0  0  0  0  0  0  0  0  0  0
    7.7793   11.0832    3.1729 N   0  0  0  0  0  0  0  0  0  0  0  0
    3.2101   10.7696    0.1914 C   0  0  0  0  0  0  0  0  0  0  0  0
    3.2664   12.2022    0.5025 C   0  0  0  0  0  0  0  0  0  0  0  0
    2.6939   12.6113    1.6053 C   0  0  0  0  0  0  0  0  0  0  0  0
    2.6813   14.0324    2.0308 C   0  0  0  0  0  0  0  0  0  0  0  0
    2.6308   14.8473    0.7339 C   0  0  0  0  0  0  0  0  0  0  0  0
    3.8707   14.5310   -0.0646 C   0  0  0  0  0  0  0  0  0  0  0  0
    3.9707   13.0784   -0.4630 C   0  0  0  0  0  0  0  0  0  0  0  0
    2.2570   10.2292   -0.6502 C   0  0  0  0  0  0  0  0  0  0  0  0
    2.2578    8.8554   -0.9062 C   0  0  0  0  0  0  0  0  0  0  0  0
    2.6629    5.7169    0.5010 C   0  0  0  0  0  0  0  0  0  0  0  0
    3.6641    5.0382    1.3926 C   0  0  0  0  0  0  0  0  0  0  0  0
  1  2  1  0
  2  3  1  0
  2  4  1  0
  4  5  1  0
  5  6  2  0
  5  7  1  0
  7  8  1  0
  8  9  1  0
  9 10  1  0
 10 11  1  0
 11 12  2  0
 12 13  1  0
 13 14  1  0
 14 15  1  0
 15 16  2  0
 15 17  1  0
 17 18  2  0
 18 19  1  0
 19 20  1  0
 20 21  3  0
 19 22  2  0
 22 23  1  0
 13 24  2  0
 24 25  1  0
 25 26  2  0
 26 27  1  0
 27 28  1  0
 28 29  1  0
 29 30  1  0
 24 31  1  0
 31 32  2  0
 10 33  1  0
 33 34  1  0
 34  7  1  0
 32 11  1  0
 23 17  1  0
 30 25  1  0
M  END
>  <Smiles>  (1) 
CN(C)CC(=O)N1CCC(c2cc(NC(=O)c3nc(C#N)c[nH]3)c(C3=CCCCC3)cc2)CC1

>  <GEO>  (1) 
-3.03 -2.12 -0.02 -1.14 -0.06 0.00 2.61 3.03 -1.46

>  <target1>  (1) 
P10721_WT

>  <target2>  (1) 
P10721_T670I

$$$$
