
     RDKit          3D

 38 41  0  0  0  0  0  0  0  0999 V2000
    2.2040   -0.1972   -3.9327 C   0  0  0  0  0  0  0  0  0  0  0  0
    2.0064    0.2141   -2.4857 C   0  0  0  0  0  0  0  0  0  0  0  0
    3.0541    0.3201   -1.6114 C   0  0  0  0  0  0  0  0  0  0  0  0
    4.3324   -0.0473   -2.1694 N   0  0  0  0  0  0  0  0  0  0  0  0
    5.3700   -0.1817   -1.1561 C   0  0  0  0  0  0  0  0  0  0  0  0
    6.5789   -0.1153   -1.6894 N   0  0  0  0  0  0  0  0  0  0  0  0
    7.7416   -0.0480   -1.0113 C   0  0  0  0  0  0  0  0  0  0  0  0
    7.5637   -0.0441    0.3878 C   0  0  0  0  0  0  0  0  0  0  0  0
    6.3087   -0.1163    0.9176 C   0  0  0  0  0  0  0  0  0  0  0  0
    6.2006   -0.0397    2.4121 C   0  0  0  0  0  0  0  0  0  0  0  0
    7.1753    0.7547    3.0294 C   0  0  0  0  0  0  0  0  0  0  0  0
    7.1238    0.9052    4.3949 C   0  0  0  0  0  0  0  0  0  0  0  0
    6.1717    0.3156    5.1725 C   0  0  0  0  0  0  0  0  0  0  0  0
    5.1955   -0.4816    4.5422 C   0  0  0  0  0  0  0  0  0  0  0  0
    5.2802   -0.6056    3.1687 C   0  0  0  0  0  0  0  0  0  0  0  0
    5.1456   -0.1861    0.1811 N   0  0  0  0  0  0  0  0  0  0  0  0
    2.9280    0.7080   -0.2798 C   0  0  0  0  0  0  0  0  0  0  0  0
    1.5713    0.9835    0.1087 C   0  0  0  0  0  0  0  0  0  0  0  0
    0.5078    0.8836   -0.7189 C   0  0  0  0  0  0  0  0  0  0  0  0
   -0.8474    1.0367   -0.4749 N   0  0  0  0  0  0  0  0  0  0  0  0
   -1.6693    1.5962    0.4948 C   0  0  0  0  0  0  0  0  0  0  0  0
   -1.1663    2.1993    1.4571 O   0  0  0  0  0  0  0  0  0  0  0  0
   -3.0988    1.3626    0.2112 C   0  0  0  0  0  0  0  0  0  0  0  0
   -3.9753    2.4549    0.3914 C   0  0  0  0  0  0  0  0  0  0  0  0
   -5.3229    2.3061    0.0234 C   0  0  0  0  0  0  0  0  0  0  0  0
   -5.7212    1.1121   -0.4930 C   0  0  0  0  0  0  0  0  0  0  0  0
   -4.8966    0.0116   -0.6874 C   0  0  0  0  0  0  0  0  0  0  0  0
   -5.4274   -1.2463   -1.2129 N   0  0  0  0  0  0  0  0  0  0  0  0
   -6.8231   -1.2102   -1.5303 C   0  0  0  0  0  0  0  0  0  0  0  0
   -7.5855   -0.3056   -1.4614 O   0  0  0  0  0  0  0  0  0  0  0  0
   -7.4083   -2.5358   -2.0080 C   0  0  0  0  0  0  0  0  0  0  0  0
   -8.6173   -2.4905   -2.2060 C   0  0  0  0  0  0  0  0  0  0  0  0
   -9.9594   -2.3009   -2.3908 C   0  0  0  0  0  0  0  0  0  0  0  0
  -10.8295   -3.1965   -1.6884 N   0  0  0  0  0  0  0  0  0  0  0  0
  -10.9227   -2.9097   -0.3089 C   0  0  0  0  0  0  0  0  0  0  0  0
  -12.1410   -3.3118   -2.3559 C   0  0  0  0  0  0  0  0  0  0  0  0
   -3.5543    0.1655   -0.3138 C   0  0  0  0  0  0  0  0  0  0  0  0
    0.7191    0.4808   -2.0753 C   0  0  0  0  0  0  0  0  0  0  0  0
  1  2  1  0
  2  3  2  0
  3  4  1  0
  4  5  1  0
  5  6  2  0
  6  7  1  0
  7  8  2  0
  8  9  1  0
  9 10  1  0
 10 11  2  0
 11 12  1  0
 12 13  2  0
 13 14  1  0
 14 15  2  0
  9 16  2  0
  3 17  1  0
 17 18  2  0
 18 19  1  0
 19 20  1  0
 20 21  1  0
 21 22  2  0
 21 23  1  0
 23 24  2  0
 24 25  1  0
 25 26  2  0
 26 27  1  0
 27 28  1  0
 28 29  1  0
 29 30  2  0
 29 31  1  0
 31 32  2  3
 32 33  1  0
 33 34  1  0
 34 35  1  0
 34 36  1  0
 27 37  2  0
 19 38  2  0
 38  2  1  0
 16  5  1  0
 37 23  1  0
 15 10  1  0
M  END
>  <Smiles>  (1) 
Cc1c(Nc2nccc(-c3ccccc3)n2)ccc(NC(=O)c2cccc(NC(=O)C=CCN(C)C)c2)c1

>  <GEO>  (1) 
-2.94 -2.81 0.56 0.31 0.05 -2.38 0.03 0.04 3.08 0.03 -2.21 1.31

>  <target1>  (1) 
P10721_WT

>  <target2>  (1) 
P10721_T670I

$$$$
