
     RDKit          3D

 32 35  0  0  0  0  0  0  0  0999 V2000
   -4.1587    3.0031   -1.2309 C   0  0  0  0  0  0  0  0  0  0  0  0
   -4.8673    1.7668   -0.8572 C   0  0  0  0  0  0  0  0  0  0  0  0
   -4.4911    0.6357   -0.1040 C   0  0  0  0  0  0  0  0  0  0  0  0
   -3.1022    0.6445    0.4489 C   0  0  0  0  0  0  0  0  0  0  0  0
   -2.0944   -0.0515   -0.1874 C   0  0  0  0  0  0  0  0  0  0  0  0
   -0.7940   -0.0503    0.3201 C   0  0  0  0  0  0  0  0  0  0  0  0
   -0.5465    0.6749    1.4877 C   0  0  0  0  0  0  0  0  0  0  0  0
    0.7921    0.6801    2.0160 N   0  0  0  0  0  0  0  0  0  0  0  0
    1.1768    1.5385    3.0618 C   0  0  0  0  0  0  0  0  0  0  0  0
    0.3083    2.3624    3.4808 O   0  0  0  0  0  0  0  0  0  0  0  0
    2.4374    1.5638    3.6829 N   0  0  0  0  0  0  0  0  0  0  0  0
    2.6930    2.5330    4.7197 C   0  0  0  0  0  0  0  0  0  0  0  0
    3.8120    2.4604    5.5227 C   0  0  0  0  0  0  0  0  0  0  0  0
    4.0823    3.3710    6.5202 C   0  0  0  0  0  0  0  0  0  0  0  0
    3.1960    4.4043    6.7291 C   0  0  0  0  0  0  0  0  0  0  0  0
    3.5620    5.5585    8.0116 Cl  0  0  0  0  0  0  0  0  0  0  0  0
    2.0640    4.5161    5.9501 C   0  0  0  0  0  0  0  0  0  0  0  0
    1.1561    5.6538    6.2325 C   0  0  0  0  0  0  0  0  0  0  0  0
    0.0698    5.6045    5.3725 F   0  0  0  0  0  0  0  0  0  0  0  0
    0.7174    5.5223    7.5345 F   0  0  0  0  0  0  0  0  0  0  0  0
    1.8130    6.8671    6.1508 F   0  0  0  0  0  0  0  0  0  0  0  0
    1.8138    3.5851    4.9504 C   0  0  0  0  0  0  0  0  0  0  0  0
   -1.5313    1.3707    2.1328 C   0  0  0  0  0  0  0  0  0  0  0  0
   -2.8313    1.3623    1.6149 C   0  0  0  0  0  0  0  0  0  0  0  0
   -5.3556   -0.3442    0.0706 C   0  0  0  0  0  0  0  0  0  0  0  0
   -6.6447   -0.2414   -0.5017 C   0  0  0  0  0  0  0  0  0  0  0  0
   -7.6090   -1.1920   -0.3828 N   0  0  0  0  0  0  0  0  0  0  0  0
   -7.3749   -2.3080    0.3053 C   0  0  0  0  0  0  0  0  0  0  0  0
   -6.1714   -2.4442    0.8610 N   0  0  0  0  0  0  0  0  0  0  0  0
   -5.2039   -1.5575    0.7774 C   0  0  0  0  0  0  0  0  0  0  0  0
   -3.9675   -1.8615    1.4357 N   0  0  0  0  0  0  0  0  0  0  0  0
   -6.6270    1.3687   -1.3518 S   0  0  0  0  0  0  0  0  0  0  0  0
  1  2  1  0
  2  3  2  0
  3  4  1  0
  4  5  1  0
  5  6  2  0
  6  7  1  0
  7  8  1  0
  8  9  1  0
  9 10  2  0
  9 11  1  0
 11 12  1  0
 12 13  1  0
 13 14  2  0
 14 15  1  0
 15 16  1  0
 15 17  2  0
 17 18  1  0
 18 19  1  0
 18 20  1  0
 18 21  1  0
 17 22  1  0
  7 23  2  0
 23 24  1  0
  3 25  1  0
 25 26  1  0
 26 27  2  0
 27 28  1  0
 28 29  2  0
 29 30  1  0
 30 31  1  0
 26 32  1  0
 32  2  1  0
 24  4  2  0
 30 25  2  0
 22 12  2  0
M  END
>  <Smiles>  (1) 
Cc1c(-c2ccc(NC(=O)Nc3ccc(Cl)c(C(F)(F)F)c3)cc2)c2c(ncnc2N)s1

>  <GEO>  (1) 
-1.74 2.97 -0.06 3.11 2.94 -3.13

>  <target1>  (1) 
P10721_WT

>  <target2>  (1) 
P10721_T670I

$$$$
