
     RDKit          3D

 29 33  0  0  0  0  0  0  0  0999 V2000
    8.3201   -1.2004    0.2620 C   0  0  0  0  0  0  0  0  0  0  0  0
    7.5239   -0.6052   -0.7803 N   0  0  0  0  0  0  0  0  0  0  0  0
    6.9857   -1.6059   -1.6853 C   0  0  0  0  0  0  0  0  0  0  0  0
    5.8427   -1.0856   -2.4986 C   0  0  0  0  0  0  0  0  0  0  0  0
    4.7303   -0.7832   -1.6292 N   0  0  0  0  0  0  0  0  0  0  0  0
    3.9463    0.3381   -2.1630 C   0  0  0  0  0  0  0  0  0  0  0  0
    4.7120    1.5917   -2.1038 C   0  0  0  0  0  0  0  0  0  0  0  0
    5.1422    2.0538   -0.8654 C   0  0  0  0  0  0  0  0  0  0  0  0
    5.8653    3.2409   -0.8264 C   0  0  0  0  0  0  0  0  0  0  0  0
    6.1344    3.9230   -2.0076 C   0  0  0  0  0  0  0  0  0  0  0  0
    6.8061    5.0830   -2.2554 N   0  0  0  0  0  0  0  0  0  0  0  0
    6.7943    5.3308   -3.5858 C   0  0  0  0  0  0  0  0  0  0  0  0
    7.3980    6.4647   -4.2632 C   0  0  0  0  0  0  0  0  0  0  0  0
    8.2152    7.3295   -3.5682 C   0  0  0  0  0  0  0  0  0  0  0  0
    8.4487    7.0987   -2.2196 O   0  0  0  0  0  0  0  0  0  0  0  0
    8.7767    8.3798   -4.1875 N   0  0  0  0  0  0  0  0  0  0  0  0
    8.5561    8.6164   -5.5060 C   0  0  0  0  0  0  0  0  0  0  0  0
    9.1190    9.6865   -6.1686 C   0  0  0  0  0  0  0  0  0  0  0  0
    8.8696    9.8911   -7.5083 C   0  0  0  0  0  0  0  0  0  0  0  0
    8.0607    9.0393   -8.2067 C   0  0  0  0  0  0  0  0  0  0  0  0
    7.5019    7.9711   -7.5347 C   0  0  0  0  0  0  0  0  0  0  0  0
    7.7391    7.7508   -6.1990 C   0  0  0  0  0  0  0  0  0  0  0  0
    7.1391    6.6552   -5.6011 C   0  0  0  0  0  0  0  0  0  0  0  0
    6.3011    5.7831   -6.3494 N   0  0  0  0  0  0  0  0  0  0  0  0
    6.1145    4.3234   -4.1637 N   0  0  0  0  0  0  0  0  0  0  0  0
    5.6928    3.4408   -3.2401 C   0  0  0  0  0  0  0  0  0  0  0  0
    4.9752    2.2614   -3.2726 C   0  0  0  0  0  0  0  0  0  0  0  0
    5.1271   -0.4533   -0.2874 C   0  0  0  0  0  0  0  0  0  0  0  0
    6.4782    0.2497   -0.2494 C   0  0  0  0  0  0  0  0  0  0  0  0
  1  2  1  0
  2  3  1  0
  3  4  1  0
  4  5  1  0
  5  6  1  0
  6  7  1  0
  7  8  1  0
  8  9  2  0
  9 10  1  0
 10 11  1  0
 11 12  1  0
 12 13  1  0
 13 14  1  0
 14 15  1  0
 14 16  2  0
 16 17  1  0
 17 18  2  0
 18 19  1  0
 19 20  2  0
 20 21  1  0
 21 22  2  0
 22 23  1  0
 23 24  1  0
 12 25  2  0
 25 26  1  0
 26 27  1  0
  5 28  1  0
 28 29  1  0
 29  2  1  0
 27  7  2  0
 26 10  2  0
 23 13  2  0
 22 17  1  0
M  END
>  <Smiles>  (1) 
CN1CCN(Cc2ccc3[nH]c(-c4c(O)nc5ccccc5c4N)nc3c2)CC1

>  <GEO>  (1) 
-1.19 -1.05 0.15

>  <target1>  (1) 
P10721_WT

>  <target2>  (1) 
P10721_T670I

$$$$
