
     RDKit          3D

 35 38  0  0  0  0  0  0  0  0999 V2000
    9.2312    4.8208    2.7528 C   0  0  0  0  0  0  0  0  0  0  0  0
    8.2671    4.2279    1.8415 N   0  0  0  0  0  0  0  0  0  0  0  0
    7.0223    3.7003    2.2209 C   0  0  0  0  0  0  0  0  0  0  0  0
    6.7621    3.6551    3.4709 O   0  0  0  0  0  0  0  0  0  0  0  0
    6.0514    3.2180    1.2465 C   0  0  0  0  0  0  0  0  0  0  0  0
    6.4433    2.6841    0.0336 C   0  0  0  0  0  0  0  0  0  0  0  0
    5.5409    2.2228   -0.9015 C   0  0  0  0  0  0  0  0  0  0  0  0
    4.1791    2.2889   -0.6321 C   0  0  0  0  0  0  0  0  0  0  0  0
    3.2170    1.8220   -1.5739 N   0  0  0  0  0  0  0  0  0  0  0  0
    3.6641    1.3842   -2.8511 C   0  0  0  0  0  0  0  0  0  0  0  0
    2.7985    1.0788   -3.8568 N   0  0  0  0  0  0  0  0  0  0  0  0
    3.2514    0.6667   -5.0544 C   0  0  0  0  0  0  0  0  0  0  0  0
    4.5956    0.5494   -5.2761 C   0  0  0  0  0  0  0  0  0  0  0  0
    5.0672    0.0998   -6.5850 C   0  0  0  0  0  0  0  0  0  0  0  0
    6.4826    0.0092   -6.7168 N   0  0  0  0  0  0  0  0  0  0  0  0
    7.0228   -0.4217   -7.9602 C   0  0  0  0  0  0  0  0  0  0  0  0
    7.1643    0.4108   -9.0527 C   0  0  0  0  0  0  0  0  0  0  0  0
    6.6672    2.0744   -8.9353 Cl  0  0  0  0  0  0  0  0  0  0  0  0
    7.6931   -0.0420  -10.2453 C   0  0  0  0  0  0  0  0  0  0  0  0
    7.8521    0.7522  -11.3580 O   0  0  0  0  0  0  0  0  0  0  0  0
    8.4539    0.2555  -12.5305 C   0  0  0  0  0  0  0  0  0  0  0  0
    8.0734   -1.3633  -10.2954 C   0  0  0  0  0  0  0  0  0  0  0  0
    7.9339   -2.1972   -9.2076 C   0  0  0  0  0  0  0  0  0  0  0  0
    8.3330   -3.4998   -9.3281 O   0  0  0  0  0  0  0  0  0  0  0  0
    8.8442   -4.1226  -10.4745 C   0  0  0  0  0  0  0  0  0  0  0  0
    7.4114   -1.7613   -8.0199 C   0  0  0  0  0  0  0  0  0  0  0  0
    7.2575   -2.8496   -6.6833 Cl  0  0  0  0  0  0  0  0  0  0  0  0
    7.3604    0.3310   -5.6608 C   0  0  0  0  0  0  0  0  0  0  0  0
    8.6250    0.2547   -5.7656 O   0  0  0  0  0  0  0  0  0  0  0  0
    6.8722    0.7693   -4.3885 N   0  0  0  0  0  0  0  0  0  0  0  0
    7.7676    1.1033   -3.2939 C   0  0  0  0  0  0  0  0  0  0  0  0
    5.4528    0.8591   -4.2582 C   0  0  0  0  0  0  0  0  0  0  0  0
    4.9872    1.2701   -3.0649 N   0  0  0  0  0  0  0  0  0  0  0  0
    3.7951    2.8306    0.5972 C   0  0  0  0  0  0  0  0  0  0  0  0
    4.7032    3.2904    1.5285 C   0  0  0  0  0  0  0  0  0  0  0  0
  1  2  1  0
  2  3  1  0
  3  4  2  0
  3  5  1  0
  5  6  1  0
  6  7  2  0
  7  8  1  0
  8  9  1  0
  9 10  1  0
 10 11  1  0
 11 12  2  0
 12 13  1  0
 13 14  1  0
 14 15  1  0
 15 16  1  0
 16 17  2  0
 17 18  1  0
 17 19  1  0
 19 20  1  0
 20 21  1  0
 19 22  2  0
 22 23  1  0
 23 24  1  0
 24 25  1  0
 23 26  2  0
 26 27  1  0
 15 28  1  0
 28 29  2  0
 28 30  1  0
 30 31  1  0
 30 32  1  0
 32 33  1  0
  8 34  2  0
 34 35  1  0
 35  5  2  0
 33 10  2  0
 32 13  2  0
 26 16  1  0
M  END
>  <Smiles>  (1) 
CNC(=O)c1ccc(Nc2ncc3CN(c4c(Cl)c(OC)cc(OC)c4Cl)C(=O)N(C)c3n2)cc1

>  <GEO>  (1) 
-0.09 0.52 -0.09 -3.00 1.40 3.09 -0.04

>  <target1>  (1) 
P10721_WT

>  <target2>  (1) 
P10721_T670I

$$$$
