
     RDKit          3D

 31 34  0  0  0  0  0  0  0  0999 V2000
    8.8268   -1.8119    0.6875 C   0  0  0  0  0  0  0  0  0  0  0  0
    8.2161   -0.5766    1.0098 O   0  0  0  0  0  0  0  0  0  0  0  0
    6.9656   -0.2972    0.4700 C   0  0  0  0  0  0  0  0  0  0  0  0
    6.3842   -1.2328   -0.3644 C   0  0  0  0  0  0  0  0  0  0  0  0
    5.1354   -0.9295   -0.8901 C   0  0  0  0  0  0  0  0  0  0  0  0
    4.4987    0.2482   -0.5979 C   0  0  0  0  0  0  0  0  0  0  0  0
    3.2202    0.5233   -1.1555 N   0  0  0  0  0  0  0  0  0  0  0  0
    2.6332   -0.2330   -2.2066 C   0  0  0  0  0  0  0  0  0  0  0  0
    3.3200   -1.1559   -2.7545 O   0  0  0  0  0  0  0  0  0  0  0  0
    1.3202    0.0750   -2.5912 N   0  0  0  0  0  0  0  0  0  0  0  0
    0.6243   -0.5270   -3.6720 C   0  0  0  0  0  0  0  0  0  0  0  0
    1.3603   -1.3377   -4.5266 C   0  0  0  0  0  0  0  0  0  0  0  0
    0.7239   -1.9467   -5.5956 C   0  0  0  0  0  0  0  0  0  0  0  0
   -0.6322   -1.7594   -5.8241 C   0  0  0  0  0  0  0  0  0  0  0  0
   -1.3436   -2.3735   -6.9272 C   0  0  0  0  0  0  0  0  0  0  0  0
   -2.1358   -3.4959   -6.8041 C   0  0  0  0  0  0  0  0  0  0  0  0
   -2.2814   -4.1290   -5.4668 C   0  0  0  0  0  0  0  0  0  0  0  0
   -2.7572   -3.9769   -7.9387 C   0  0  0  0  0  0  0  0  0  0  0  0
   -2.6258   -3.3915   -9.1892 C   0  0  0  0  0  0  0  0  0  0  0  0
   -1.8251   -2.2597   -9.3052 C   0  0  0  0  0  0  0  0  0  0  0  0
   -1.2077   -1.7838   -8.1721 C   0  0  0  0  0  0  0  0  0  0  0  0
   -0.4917   -0.6683   -8.5944 C   0  0  0  0  0  0  0  0  0  0  0  0
    0.3295    0.1917   -7.7864 N   0  0  0  0  0  0  0  0  0  0  0  0
   -0.7143   -0.5375   -9.9348 N   0  0  0  0  0  0  0  0  0  0  0  0
   -1.5069   -1.4920  -10.3309 O   0  0  0  0  0  0  0  0  0  0  0  0
   -1.3253   -0.9511   -4.9575 C   0  0  0  0  0  0  0  0  0  0  0  0
   -0.7259   -0.3308   -3.8861 C   0  0  0  0  0  0  0  0  0  0  0  0
    5.0867    1.1682    0.2318 C   0  0  0  0  0  0  0  0  0  0  0  0
    6.3326    0.8932    0.7713 C   0  0  0  0  0  0  0  0  0  0  0  0
    6.9334    1.8012    1.6014 O   0  0  0  0  0  0  0  0  0  0  0  0
    6.3149    3.0522    1.8506 C   0  0  0  0  0  0  0  0  0  0  0  0
  1  2  1  0
  2  3  1  0
  3  4  1  0
  4  5  2  0
  5  6  1  0
  6  7  1  0
  7  8  1  0
  8  9  2  0
  8 10  1  0
 10 11  1  0
 11 12  1  0
 12 13  2  0
 13 14  1  0
 14 15  1  0
 15 16  2  0
 16 17  1  0
 16 18  1  0
 18 19  2  0
 19 20  1  0
 20 21  2  0
 21 22  1  0
 22 23  1  0
 22 24  2  0
 24 25  1  0
 14 26  2  0
 26 27  1  0
  6 28  2  0
 28 29  1  0
 29 30  1  0
 30 31  1  0
 29  3  2  0
 27 11  2  0
 21 15  1  0
 25 20  1  0
M  END
>  <Smiles>  (1) 
COc1ccc(NC(=O)Nc2ccc(-c3c(C)ccc4c3c(N)no4)cc2)cc1OC

>  <GEO>  (1) 
-0.01 -0.21 -0.09 3.07 -0.17 1.76 -0.06

>  <target1>  (1) 
P10721_WT

>  <target2>  (1) 
P10721_T670I

$$$$
