
     RDKit          3D

 28 31  0  0  0  0  0  0  0  0999 V2000
    6.6268    3.1804    2.1266 C   0  0  0  0  0  0  0  0  0  0  0  0
    6.3263    2.0874    1.1630 C   0  0  0  0  0  0  0  0  0  0  0  0
    5.4238    1.0863    1.4000 C   0  0  0  0  0  0  0  0  0  0  0  0
    5.1415    0.0696    0.5085 C   0  0  0  0  0  0  0  0  0  0  0  0
    4.1888   -0.9608    0.7947 N   0  0  0  0  0  0  0  0  0  0  0  0
    3.6374   -1.0924    2.1149 C   0  0  0  0  0  0  0  0  0  0  0  0
    4.0820   -0.2986    2.9853 O   0  0  0  0  0  0  0  0  0  0  0  0
    2.6413   -2.0696    2.4194 N   0  0  0  0  0  0  0  0  0  0  0  0
    2.1481   -2.2256    3.7663 C   0  0  0  0  0  0  0  0  0  0  0  0
    1.0381   -2.9843    4.0401 C   0  0  0  0  0  0  0  0  0  0  0  0
    0.3282   -3.6629    2.9082 C   0  0  0  0  0  0  0  0  0  0  0  0
    0.5871   -3.1148    5.3539 C   0  0  0  0  0  0  0  0  0  0  0  0
    1.2624   -2.4777    6.3746 C   0  0  0  0  0  0  0  0  0  0  0  0
    0.8651   -2.5571    7.7723 C   0  0  0  0  0  0  0  0  0  0  0  0
    0.3399   -1.4298    8.3824 C   0  0  0  0  0  0  0  0  0  0  0  0
   -0.0245   -1.5462    9.7080 C   0  0  0  0  0  0  0  0  0  0  0  0
    0.1209   -2.7203   10.4051 C   0  0  0  0  0  0  0  0  0  0  0  0
    0.6455   -3.8534    9.8032 C   0  0  0  0  0  0  0  0  0  0  0  0
    1.0076   -3.7310    8.4790 C   0  0  0  0  0  0  0  0  0  0  0  0
    1.5431   -5.0327    8.0101 C   0  0  0  0  0  0  0  0  0  0  0  0
    1.4670   -5.9179    9.1519 N   0  0  0  0  0  0  0  0  0  0  0  0
    0.9158   -5.2079   10.2671 C   0  0  0  0  0  0  0  0  0  0  0  0
    0.7116   -5.6773   11.4159 O   0  0  0  0  0  0  0  0  0  0  0  0
    2.3964   -1.7003    6.1095 C   0  0  0  0  0  0  0  0  0  0  0  0
    2.8260   -1.5868    4.7856 C   0  0  0  0  0  0  0  0  0  0  0  0
    5.8421    0.1052   -0.6928 C   0  0  0  0  0  0  0  0  0  0  0  0
    6.7606    1.1018   -0.9646 C   0  0  0  0  0  0  0  0  0  0  0  0
    6.9967    2.0839   -0.0383 C   0  0  0  0  0  0  0  0  0  0  0  0
  1  2  1  0
  2  3  2  0
  3  4  1  0
  4  5  1  0
  5  6  1  0
  6  7  2  0
  6  8  1  0
  8  9  1  0
  9 10  2  0
 10 11  1  0
 10 12  1  0
 12 13  2  0
 13 14  1  0
 14 15  2  0
 15 16  1  0
 16 17  2  0
 17 18  1  0
 18 19  2  0
 19 20  1  0
 20 21  1  0
 21 22  1  0
 22 23  2  0
 13 24  1  0
 24 25  2  0
  4 26  2  0
 26 27  1  0
 27 28  2  0
 28  2  1  0
 25  9  1  0
 19 14  1  0
 22 18  1  0
M  END
>  <Smiles>  (1) 
Cc1cc(NC(=O)Nc2c(C)cc(-c3cccc4c3CNC4=O)cc2)ccc1

>  <GEO>  (1) 
-0.17 -0.05 3.09 2.94 -1.92

>  <target1>  (1) 
P10721_WT

>  <target2>  (1) 
P10721_T670I

$$$$
