
     RDKit          3D

 31 34  0  0  0  0  0  0  0  0999 V2000
   -8.2613   -2.4532    0.9843 C   0  0  0  0  0  0  0  0  0  0  0  0
   -7.5612   -1.2751    0.5973 O   0  0  0  0  0  0  0  0  0  0  0  0
   -6.1740   -1.3033    0.5662 C   0  0  0  0  0  0  0  0  0  0  0  0
   -5.5052   -0.2384    0.0121 C   0  0  0  0  0  0  0  0  0  0  0  0
   -6.1796    0.8655   -0.5178 O   0  0  0  0  0  0  0  0  0  0  0  0
   -6.4625    1.9471    0.3534 C   0  0  0  0  0  0  0  0  0  0  0  0
   -4.1156   -0.3163    0.0057 C   0  0  0  0  0  0  0  0  0  0  0  0
   -3.4297   -1.3925    0.5214 C   0  0  0  0  0  0  0  0  0  0  0  0
   -2.0020   -1.4683    0.5128 N   0  0  0  0  0  0  0  0  0  0  0  0
   -1.2805   -2.2147    1.4886 C   0  0  0  0  0  0  0  0  0  0  0  0
    0.0653   -2.2624    1.5280 N   0  0  0  0  0  0  0  0  0  0  0  0
    0.6674   -2.9878    2.4781 N   0  0  0  0  0  0  0  0  0  0  0  0
    1.9657   -3.2194    2.7619 C   0  0  0  0  0  0  0  0  0  0  0  0
    3.1157   -2.6886    2.0384 C   0  0  0  0  0  0  0  0  0  0  0  0
    4.2947   -2.4050    2.7372 C   0  0  0  0  0  0  0  0  0  0  0  0
    5.3964   -1.9036    2.0835 C   0  0  0  0  0  0  0  0  0  0  0  0
    6.6225   -1.6210    2.8782 C   0  0  0  0  0  0  0  0  0  0  0  0
    7.2639   -0.5322    2.2914 F   0  0  0  0  0  0  0  0  0  0  0  0
    7.4269   -2.7232    2.9858 F   0  0  0  0  0  0  0  0  0  0  0  0
    6.2820   -1.2197    4.1425 F   0  0  0  0  0  0  0  0  0  0  0  0
    5.3198   -1.6860    0.7338 C   0  0  0  0  0  0  0  0  0  0  0  0
    4.1839   -1.9486    0.0020 C   0  0  0  0  0  0  0  0  0  0  0  0
    3.0972   -2.4513    0.6916 C   0  0  0  0  0  0  0  0  0  0  0  0
    2.0499   -4.0273    3.8305 N   0  0  0  0  0  0  0  0  0  0  0  0
    0.8136   -4.3376    4.2633 C   0  0  0  0  0  0  0  0  0  0  0  0
    0.4010   -5.1956    5.4070 C   0  0  0  0  0  0  0  0  0  0  0  0
   -0.0421   -3.6753    3.4013 C   0  0  0  0  0  0  0  0  0  0  0  0
   -1.4297   -3.6426    3.3825 C   0  0  0  0  0  0  0  0  0  0  0  0
   -2.0092   -2.9031    2.4132 N   0  0  0  0  0  0  0  0  0  0  0  0
   -4.1287   -2.4385    1.0670 C   0  0  0  0  0  0  0  0  0  0  0  0
   -5.5207   -2.4091    1.0977 C   0  0  0  0  0  0  0  0  0  0  0  0
  1  2  1  0
  2  3  1  0
  3  4  2  0
  4  5  1  0
  5  6  1  0
  4  7  1  0
  7  8  2  0
  8  9  1  0
  9 10  1  0
 10 11  2  0
 11 12  1  0
 12 13  1  0
 13 14  1  0
 14 15  2  0
 15 16  1  0
 16 17  1  0
 17 18  1  0
 17 19  1  0
 17 20  1  0
 16 21  2  0
 21 22  1  0
 22 23  2  0
 13 24  2  0
 24 25  1  0
 25 26  1  0
 25 27  2  0
 27 28  1  0
 28 29  2  0
  8 30  1  0
 30 31  2  0
 31  3  1  0
 29 10  1  0
 27 12  1  0
 23 14  1  0
M  END
>  <Smiles>  (1) 
COc1c(OC)cc(Nc2nn3c(-c4cc(C(F)(F)F)ccc4)nc(C)c3cn2)cc1

>  <GEO>  (1) 
2.98 1.57 2.66 -3.10 2.57 -2.58

>  <target1>  (1) 
P10721_WT

>  <target2>  (1) 
P10721_T670I

$$$$
