
     RDKit          3D

 40 44  0  0  0  0  0  0  0  0999 V2000
   -6.9076    2.6133    4.3252 C   0  0  0  0  0  0  0  0  0  0  0  0
   -6.0764    1.9025    3.4228 O   0  0  0  0  0  0  0  0  0  0  0  0
   -5.6021    2.4509    2.2397 C   0  0  0  0  0  0  0  0  0  0  0  0
   -5.8619    3.6283    1.8745 O   0  0  0  0  0  0  0  0  0  0  0  0
   -4.7604    1.5997    1.3897 C   0  0  0  0  0  0  0  0  0  0  0  0
   -4.2788    2.0493    0.1585 C   0  0  0  0  0  0  0  0  0  0  0  0
   -3.4814    1.2699   -0.6570 C   0  0  0  0  0  0  0  0  0  0  0  0
   -3.1353   -0.0070   -0.2565 C   0  0  0  0  0  0  0  0  0  0  0  0
   -2.3549   -0.9968   -0.8593 C   0  0  0  0  0  0  0  0  0  0  0  0
   -1.6724   -0.9424   -2.1387 C   0  0  0  0  0  0  0  0  0  0  0  0
   -0.8113   -1.8012   -2.5490 N   0  0  0  0  0  0  0  0  0  0  0  0
   -0.2003   -1.7497   -3.8154 C   0  0  0  0  0  0  0  0  0  0  0  0
    1.1132   -1.2847   -3.8688 C   0  0  0  0  0  0  0  0  0  0  0  0
    1.7784   -1.2190   -5.0763 C   0  0  0  0  0  0  0  0  0  0  0  0
    1.1336   -1.6167   -6.2333 C   0  0  0  0  0  0  0  0  0  0  0  0
    1.8899   -1.5275   -7.4438 N   0  0  0  0  0  0  0  0  0  0  0  0
    3.3172   -1.2975   -7.4726 C   0  0  0  0  0  0  0  0  0  0  0  0
    1.1138   -1.6870   -8.6536 C   0  0  0  0  0  0  0  0  0  0  0  0
   -0.0690   -2.0819   -8.4686 O   0  0  0  0  0  0  0  0  0  0  0  0
    1.6873   -1.4015   -9.9900 C   0  0  0  0  0  0  0  0  0  0  0  0
    2.5101   -2.5452  -10.3508 N   0  0  0  0  0  0  0  0  0  0  0  0
    1.6317   -3.6862  -10.4729 C   0  0  0  0  0  0  0  0  0  0  0  0
    1.7923   -4.3136  -11.8567 C   0  0  0  0  0  0  0  0  0  0  0  0
    3.2097   -4.6701  -11.9941 N   0  0  0  0  0  0  0  0  0  0  0  0
    3.5377   -5.3989  -10.7778 C   0  0  0  0  0  0  0  0  0  0  0  0
    4.0134   -3.4407  -12.0501 C   0  0  0  0  0  0  0  0  0  0  0  0
    3.1633   -2.2608  -11.6257 C   0  0  0  0  0  0  0  0  0  0  0  0
   -0.1612   -2.0764   -6.1943 C   0  0  0  0  0  0  0  0  0  0  0  0
   -0.8401   -2.1455   -4.9731 C   0  0  0  0  0  0  0  0  0  0  0  0
   -1.9732    0.1710   -3.0494 C   0  0  0  0  0  0  0  0  0  0  0  0
   -3.2313    0.2797   -3.6443 C   0  0  0  0  0  0  0  0  0  0  0  0
   -3.5325    1.3179   -4.5029 C   0  0  0  0  0  0  0  0  0  0  0  0
   -2.5910    2.2784   -4.7948 C   0  0  0  0  0  0  0  0  0  0  0  0
   -1.3278    2.1928   -4.2137 C   0  0  0  0  0  0  0  0  0  0  0  0
   -1.0505    1.1473   -3.3599 C   0  0  0  0  0  0  0  0  0  0  0  0
   -2.3669   -2.0623    0.0258 C   0  0  0  0  0  0  0  0  0  0  0  0
   -1.7042   -3.2885   -0.1723 O   0  0  0  0  0  0  0  0  0  0  0  0
   -3.1129   -1.7489    1.1145 N   0  0  0  0  0  0  0  0  0  0  0  0
   -3.5952   -0.4980    0.9690 C   0  0  0  0  0  0  0  0  0  0  0  0
   -4.4007    0.3130    1.7726 C   0  0  0  0  0  0  0  0  0  0  0  0
  1  2  1  0
  2  3  1  0
  3  4  2  0
  3  5  1  0
  5  6  1  0
  6  7  2  0
  7  8  1  0
  8  9  1  0
  9 10  1  0
 10 11  2  3
 11 12  1  0
 12 13  1  0
 13 14  2  0
 14 15  1  0
 15 16  1  0
 16 17  1  0
 16 18  1  0
 18 19  2  0
 18 20  1  0
 20 21  1  0
 21 22  1  0
 22 23  1  0
 23 24  1  0
 24 25  1  0
 24 26  1  0
 26 27  1  0
 15 28  2  0
 28 29  1  0
 10 30  1  0
 30 31  2  0
 31 32  1  0
 32 33  2  0
 33 34  1  0
 34 35  2  0
  9 36  2  0
 36 37  1  0
 36 38  1  0
 38 39  1  0
 39 40  1  0
 40  5  2  0
 39  8  2  0
 29 12  2  0
 35 30  1  0
 27 21  1  0
M  END
>  <Smiles>  (1) 
COC(=O)c1ccc2c(C(=Nc3ccc(N(C)C(=O)CN4CCN(C)CC4)cc3)c3ccccc3)c(O)[nH]c2c1

>  <GEO>  (1) 
0.01 3.10 2.95 3.10 -1.18 1.80 0.21 -0.18 1.37 1.12

>  <target1>  (1) 
P10721_WT

>  <target2>  (1) 
P10721_T670I

$$$$
