
     RDKit          3D

 26 29  0  0  0  0  0  0  0  0999 V2000
   -6.8483    0.9274    2.6612 C   0  0  0  0  0  0  0  0  0  0  0  0
   -5.7524    0.9177    1.6489 C   0  0  0  0  0  0  0  0  0  0  0  0
   -5.9681    1.2551    0.3109 C   0  0  0  0  0  0  0  0  0  0  0  0
   -4.7296    1.1332   -0.3250 C   0  0  0  0  0  0  0  0  0  0  0  0
   -4.5546    1.4482   -1.7646 C   0  0  0  0  0  0  0  0  0  0  0  0
   -3.8040    0.7322    0.6137 C   0  0  0  0  0  0  0  0  0  0  0  0
   -2.4113    0.4357    0.4587 C   0  0  0  0  0  0  0  0  0  0  0  0
   -1.6240    0.0963    1.4286 C   0  0  0  0  0  0  0  0  0  0  0  0
   -0.2240   -0.2546    1.5217 C   0  0  0  0  0  0  0  0  0  0  0  0
    0.6311   -0.3454    0.6172 O   0  0  0  0  0  0  0  0  0  0  0  0
    0.1105   -0.5160    2.8987 N   0  0  0  0  0  0  0  0  0  0  0  0
   -1.0736   -0.3310    3.6632 C   0  0  0  0  0  0  0  0  0  0  0  0
   -2.1119    0.0286    2.8338 C   0  0  0  0  0  0  0  0  0  0  0  0
   -3.3662    0.2566    3.3961 C   0  0  0  0  0  0  0  0  0  0  0  0
   -3.5709    0.1266    4.7556 C   0  0  0  0  0  0  0  0  0  0  0  0
   -4.8901    0.3677    5.3378 C   0  0  0  0  0  0  0  0  0  0  0  0
   -5.2086   -0.2128    6.4070 O   0  0  0  0  0  0  0  0  0  0  0  0
   -5.7871    1.2538    4.6842 N   0  0  0  0  0  0  0  0  0  0  0  0
   -6.9976    1.6941    5.2325 N   0  0  0  0  0  0  0  0  0  0  0  0
   -6.6743    2.9538    5.9066 C   0  0  0  0  0  0  0  0  0  0  0  0
   -7.9717    3.7294    5.9425 C   0  0  0  0  0  0  0  0  0  0  0  0
   -8.7597    3.2004    4.7608 C   0  0  0  0  0  0  0  0  0  0  0  0
   -7.9987    2.0119    4.2429 C   0  0  0  0  0  0  0  0  0  0  0  0
   -2.5082   -0.2354    5.5588 C   0  0  0  0  0  0  0  0  0  0  0  0
   -1.2400   -0.4715    5.0327 C   0  0  0  0  0  0  0  0  0  0  0  0
   -4.4558    0.6117    1.7988 N   0  0  0  0  0  0  0  0  0  0  0  0
  1  2  1  0
  2  3  2  0
  3  4  1  0
  4  5  1  0
  4  6  2  0
  6  7  1  0
  7  8  2  3
  8  9  1  0
  9 10  2  0
  9 11  1  0
 11 12  1  0
 12 13  2  0
 13 14  1  0
 14 15  2  0
 15 16  1  0
 16 17  2  0
 16 18  1  0
 18 19  1  0
 19 20  1  0
 20 21  1  0
 21 22  1  0
 22 23  1  0
 15 24  1  0
 24 25  2  0
  6 26  1  0
 26  2  1  0
 13  8  1  0
 23 19  1  0
 25 12  1  0
M  END
>  <Smiles>  (1) 
Cc1cc(C)c(C=C2C(=O)Nc3c2cc(C(=O)NN2CCCC2)cc3)[nH]1

>  <GEO>  (1) 
3.11 3.13 2.67 -2.99 1.62

>  <target1>  (1) 
P10721_WT

>  <target2>  (1) 
P10721_T670I

$$$$
