
     RDKit          3D

 24 26  0  0  0  0  0  0  0  0999 V2000
    4.6341   -1.1839    0.8664 C   0  0  0  0  0  0  0  0  0  0  0  0
    4.3028   -0.4123   -0.3915 C   0  0  0  0  0  0  0  0  0  0  0  0
    5.5655   -0.5028   -1.2589 C   0  0  0  0  0  0  0  0  0  0  0  0
    3.2014   -1.0753   -1.1131 C   0  0  0  0  0  0  0  0  0  0  0  0
    1.8776   -0.4208   -1.1380 C   0  0  0  0  0  0  0  0  0  0  0  0
    0.8849   -1.1374   -0.4027 N   0  0  0  0  0  0  0  0  0  0  0  0
    0.2527   -2.1863   -1.1222 C   0  0  0  0  0  0  0  0  0  0  0  0
   -0.8617   -2.8936   -0.4402 C   0  0  0  0  0  0  0  0  0  0  0  0
   -1.7277   -3.6936   -1.3648 C   0  0  0  0  0  0  0  0  0  0  0  0
   -0.8452   -4.5072   -2.2420 C   0  0  0  0  0  0  0  0  0  0  0  0
    0.4859   -4.2292   -2.4545 C   0  0  0  0  0  0  0  0  0  0  0  0
    1.2054   -3.0882   -1.8378 C   0  0  0  0  0  0  0  0  0  0  0  0
    1.2518   -5.0444   -3.2966 C   0  0  0  0  0  0  0  0  0  0  0  0
    2.6359   -4.7692   -3.5278 N   0  0  0  0  0  0  0  0  0  0  0  0
    0.6283   -6.0846   -3.8687 N   0  0  0  0  0  0  0  0  0  0  0  0
   -0.6798   -6.3365   -3.6441 C   0  0  0  0  0  0  0  0  0  0  0  0
   -1.2062   -7.4903   -4.3307 N   0  0  0  0  0  0  0  0  0  0  0  0
   -1.4469   -5.5773   -2.8431 N   0  0  0  0  0  0  0  0  0  0  0  0
    1.9034    1.0252   -0.7820 C   0  0  0  0  0  0  0  0  0  0  0  0
    2.8036    1.1925    0.4237 C   0  0  0  0  0  0  0  0  0  0  0  0
    2.6077    2.5526    1.0159 C   0  0  0  0  0  0  0  0  0  0  0  0
    2.4934    0.1416    1.4971 C   0  0  0  0  0  0  0  0  0  0  0  0
    4.1489    0.9673   -0.0734 N   0  0  0  0  0  0  0  0  0  0  0  0
    4.3073    1.7435   -1.1532 O   0  0  0  0  0  0  0  0  0  0  0  0
  1  2  1  0
  2  3  1  0
  2  4  1  0
  4  5  1  0
  5  6  1  0
  6  7  1  0
  7  8  1  0
  8  9  1  0
  9 10  1  0
 10 11  1  0
 11 12  1  0
 11 13  2  0
 13 14  1  0
 13 15  1  0
 15 16  2  0
 16 17  1  0
 16 18  1  0
  5 19  1  0
 19 20  1  0
 20 21  1  0
 20 22  1  0
 20 23  1  0
 23 24  1  0
 23  2  1  0
 12  7  1  0
 18 10  2  0
M  END
>  <Smiles>  (1) 
CC1(C)CC(NC2CCc3c(C2)c(N)nc(N)n3)CC(C)(C)N1O

>  <GEO>  (1) 
-1.47 -3.06

>  <target1>  (1) 
P10721_WT

>  <target2>  (1) 
P10721_T670I

$$$$
