
     RDKit          3D

 22 24  0  0  0  0  0  0  0  0999 V2000
   -5.1731    2.4222   -1.0147 C   0  0  0  0  0  0  0  0  0  0  0  0
   -4.9403    1.0333   -0.9473 O   0  0  0  0  0  0  0  0  0  0  0  0
   -3.6709    0.5089   -0.7699 C   0  0  0  0  0  0  0  0  0  0  0  0
   -3.3927   -0.8316   -0.6961 C   0  0  0  0  0  0  0  0  0  0  0  0
   -2.1160   -1.3219   -0.5188 C   0  0  0  0  0  0  0  0  0  0  0  0
   -1.0806   -0.4025   -0.4124 C   0  0  0  0  0  0  0  0  0  0  0  0
    0.3127   -0.8264   -0.2220 C   0  0  0  0  0  0  0  0  0  0  0  0
    1.2496    0.0080   -0.1259 O   0  0  0  0  0  0  0  0  0  0  0  0
    0.5779   -2.2677   -0.1470 C   0  0  0  0  0  0  0  0  0  0  0  0
   -0.4467   -3.1823   -0.2521 C   0  0  0  0  0  0  0  0  0  0  0  0
   -0.1699   -4.5524   -0.1777 C   0  0  0  0  0  0  0  0  0  0  0  0
    1.1408   -4.9457    0.0012 C   0  0  0  0  0  0  0  0  0  0  0  0
    1.4947   -6.3924    0.0877 C   0  0  0  0  0  0  0  0  0  0  0  0
    2.1841   -4.0269    0.1086 C   0  0  0  0  0  0  0  0  0  0  0  0
    3.4912   -4.4490    0.2879 O   0  0  0  0  0  0  0  0  0  0  0  0
    1.8920   -2.6665    0.0325 C   0  0  0  0  0  0  0  0  0  0  0  0
    2.8950   -1.7238    0.1340 O   0  0  0  0  0  0  0  0  0  0  0  0
   -1.8329   -2.7518   -0.4418 C   0  0  0  0  0  0  0  0  0  0  0  0
   -2.7835   -3.5624   -0.5404 O   0  0  0  0  0  0  0  0  0  0  0  0
   -1.3458    0.9443   -0.4847 C   0  0  0  0  0  0  0  0  0  0  0  0
   -0.2811    1.8485   -0.3742 O   0  0  0  0  0  0  0  0  0  0  0  0
   -2.6342    1.4271   -0.6633 C   0  0  0  0  0  0  0  0  0  0  0  0
  1  2  1  0
  2  3  1  0
  3  4  1  0
  4  5  2  0
  5  6  1  0
  6  7  1  0
  7  8  2  0
  7  9  1  0
  9 10  2  0
 10 11  1  0
 11 12  2  0
 12 13  1  0
 12 14  1  0
 14 15  1  0
 14 16  2  0
 16 17  1  0
 10 18  1  0
 18 19  2  0
  6 20  2  0
 20 21  1  0
 20 22  1  0
 22  3  2  0
 18  5  1  0
 16  9  1  0
M  END
>  <Smiles>  (1) 
COc1cc2c(C(=O)c3c(cc(C)c(O)c3O)C2=O)c(O)c1

>  <GEO>  (1) 
3.14

>  <target1>  (1) 
P10721_WT

>  <target2>  (1) 
P10721_T670I

$$$$
