
     RDKit          3D

 31 34  0  0  0  0  0  0  0  0999 V2000
    7.0271   -1.6061    1.8890 C   0  0  0  0  0  0  0  0  0  0  0  0
    7.5037   -1.9189    0.4856 C   0  0  0  0  0  0  0  0  0  0  0  0
    6.9533   -0.9666   -0.4946 N   0  0  0  0  0  0  0  0  0  0  0  0
    7.3383   -1.4884   -1.8127 C   0  0  0  0  0  0  0  0  0  0  0  0
    6.7045   -0.6887   -2.9118 C   0  0  0  0  0  0  0  0  0  0  0  0
    7.6284    0.3071   -0.2695 C   0  0  0  0  0  0  0  0  0  0  0  0
    9.1069    0.2037   -0.5423 C   0  0  0  0  0  0  0  0  0  0  0  0
    9.8181    1.4348   -0.2765 N   0  0  0  0  0  0  0  0  0  0  0  0
    9.8569    2.4938   -1.1902 C   0  0  0  0  0  0  0  0  0  0  0  0
    9.3484    2.4653   -2.3541 O   0  0  0  0  0  0  0  0  0  0  0  0
   10.5179    3.7506   -0.8356 C   0  0  0  0  0  0  0  0  0  0  0  0
   11.5905    3.9560    0.0197 C   0  0  0  0  0  0  0  0  0  0  0  0
   12.3032    2.8419    0.7493 C   0  0  0  0  0  0  0  0  0  0  0  0
   11.8540    5.2680    0.0775 N   0  0  0  0  0  0  0  0  0  0  0  0
   11.0210    5.9392   -0.6858 C   0  0  0  0  0  0  0  0  0  0  0  0
   10.1577    5.0235   -1.2861 C   0  0  0  0  0  0  0  0  0  0  0  0
    9.1011    5.3875   -2.2231 C   0  0  0  0  0  0  0  0  0  0  0  0
    8.9222    6.8421   -2.4098 C   0  0  0  0  0  0  0  0  0  0  0  0
    9.8728    7.7141   -1.7436 C   0  0  0  0  0  0  0  0  0  0  0  0
   10.8599    7.3480   -0.9366 C   0  0  0  0  0  0  0  0  0  0  0  0
   11.6654    8.4067   -0.3472 C   0  0  0  0  0  0  0  0  0  0  0  0
   12.3101    9.4719   -0.9601 C   0  0  0  0  0  0  0  0  0  0  0  0
   12.2960    9.7972   -2.2941 O   0  0  0  0  0  0  0  0  0  0  0  0
   12.9866   10.1908   -0.0436 N   0  0  0  0  0  0  0  0  0  0  0  0
   12.8114    9.6351    1.1657 C   0  0  0  0  0  0  0  0  0  0  0  0
   13.3171   10.0189    2.4058 C   0  0  0  0  0  0  0  0  0  0  0  0
   12.9675    9.2368    3.4946 C   0  0  0  0  0  0  0  0  0  0  0  0
   12.1504    8.1244    3.3531 C   0  0  0  0  0  0  0  0  0  0  0  0
   11.8586    7.4384    4.4795 F   0  0  0  0  0  0  0  0  0  0  0  0
   11.6467    7.7461    2.1044 C   0  0  0  0  0  0  0  0  0  0  0  0
   11.9999    8.5350    0.9970 C   0  0  0  0  0  0  0  0  0  0  0  0
  1  2  1  0
  2  3  1  0
  3  4  1  0
  4  5  1  0
  3  6  1  0
  6  7  1  0
  7  8  1  0
  8  9  1  0
  9 10  2  0
  9 11  1  0
 11 12  2  0
 12 13  1  0
 12 14  1  0
 14 15  1  0
 15 16  2  0
 16 17  1  0
 17 18  1  0
 18 19  1  0
 19 20  2  0
 20 21  1  0
 21 22  2  0
 22 23  1  0
 22 24  1  0
 24 25  1  0
 25 26  1  0
 26 27  2  0
 27 28  1  0
 28 29  1  0
 28 30  2  0
 30 31  1  0
 16 11  1  0
 31 21  1  0
 20 15  1  0
 31 25  2  0
M  END
>  <Smiles>  (1) 
CCN(CC)CCNC(=O)c1c(C)[nH]c2c1CCC=C2c1c(O)[nH]c2ccc(F)cc12

>  <GEO>  (1) 
-3.01 3.03 1.11 -3.10 -1.42 -0.07 0.52 -0.90

>  <target1>  (1) 
P10721_WT

>  <target2>  (1) 
P10721_T670I

$$$$
