resistance_project/docking/5319283d3047ac55/Q9UM73_WT/docked/molecule_0011_out.pdbqt
 OpenBabel09232609193D

 72 76  0  0  1  0  0  0  0  0999 V2000
   29.6160   47.5240    7.3110 C   0  0  0  0  0  0  0  0  0  0  0  0
   29.3530   46.5610    8.2710 C   0  0  0  0  0  0  0  0  0  0  0  0
   28.0990   46.7740    8.7090 N   0  0  0  0  0  0  0  0  0  0  0  0
   27.6280   46.2170    9.4220 H   0  0  0  0  0  0  0  0  0  0  0  0
   27.5570   47.8300    8.0710 C   0  0  2  0  0  0  0  0  0  0  0  0
   26.3460   48.4240    8.1600 N   0  0  0  0  0  0  0  0  0  0  0  0
   25.6550   48.0610    8.8160 H   0  0  0  0  0  0  0  0  0  0  0  0
   26.0400   49.4860    7.3990 C   0  0  0  0  0  0  0  0  0  0  0  0
   27.0060   49.9440    6.5250 C   0  0  0  0  0  0  0  0  0  0  0  0
   28.2040   49.3350    6.4550 N   0  0  0  0  0  0  0  0  0  0  0  0
   28.9050   49.6890    5.8030 H   0  0  0  0  0  0  0  0  0  0  0  0
   28.5000   48.2750    7.2200 N   0  0  0  0  0  0  0  0  0  0  0  0
   30.2210   45.4950    8.7550 C   0  0  0  0  0  0  0  0  0  0  0  0
   29.8100   44.1820    8.8740 C   0  0  0  0  0  0  0  0  0  0  0  0
   30.6990   43.2100    9.3450 C   0  0  0  0  0  0  0  0  0  0  0  0
   31.9970   43.5720    9.6920 C   0  0  0  0  0  0  0  0  0  0  0  0
   32.4120   44.8740    9.5760 C   0  0  0  0  0  0  0  0  0  0  0  0
   31.5150   45.8150    9.1090 C   0  0  0  0  0  0  0  0  0  0  0  0
   32.9860   42.5820   10.1990 C   0  0  0  0  0  0  0  0  0  0  0  0
   33.8700   42.2160    9.1220 N   0  0  0  0  0  0  0  0  0  0  0  0
   33.4230   42.7090    7.8370 C   0  0  0  0  0  0  0  0  0  0  0  0
   34.6610   43.1590    7.0920 C   0  0  0  0  0  0  0  0  0  0  0  0
   35.6900   43.4340    8.1670 C   0  0  1  0  0  0  0  0  0  0  0  0
   35.8010   44.9220    8.4620 C   0  0  0  0  0  0  0  0  0  0  0  0
   35.2000   42.6840    9.3580 C   0  0  0  0  0  0  0  0  0  0  0  0
   30.8690   47.6560    6.5760 C   0  0  0  0  0  0  0  0  0  0  0  0
   31.3000   46.6670    5.7160 C   0  0  0  0  0  0  0  0  0  0  0  0
   32.4790   46.7510    5.0000 C   0  0  0  0  0  0  0  0  0  0  0  0
   33.2820   47.8790    5.1430 C   0  0  0  0  0  0  0  0  0  0  0  0
   32.8770   48.8690    5.9860 C   0  0  0  0  0  0  0  0  0  0  0  0
   31.6880   48.7650    6.6970 C   0  0  0  0  0  0  0  0  0  0  0  0
   34.5300   47.9030    4.3440 C   0  0  0  0  0  0  0  0  0  0  0  0
   35.4900   46.9190    4.8250 N   0  0  0  0  0  0  0  0  0  0  0  0
   36.6560   47.6810    5.2990 C   0  0  0  0  0  0  0  0  0  0  0  0
   37.7680   46.7510    5.7330 C   0  0  0  0  0  0  0  0  0  0  0  0
   35.9660   46.2420    3.6080 C   0  0  0  0  0  0  0  0  0  0  0  0
   35.5330   44.7720    3.6260 C   0  0  0  0  0  0  0  0  0  0  0  0
   26.5827   47.8939    8.5088 H   0  0  0  0  0  0  0  0  0  0  0  0
   25.1172   49.9434    7.4645 H   0  0  0  0  0  0  0  0  0  0  0  0
   26.8081   50.7579    5.9221 H   0  0  0  0  0  0  0  0  0  0  0  0
   28.8465   43.9177    8.6153 H   0  0  0  0  0  0  0  0  0  0  0  0
   30.3934   42.2284    9.4348 H   0  0  0  0  0  0  0  0  0  0  0  0
   33.3742   45.1450    9.8322 H   0  0  0  0  0  0  0  0  0  0  0  0
   31.8251   46.7954    9.0216 H   0  0  0  0  0  0  0  0  0  0  0  0
   33.5517   43.0152   10.9972 H   0  0  0  0  0  0  0  0  0  0  0  0
   32.4775   41.7138   10.5631 H   0  0  0  0  0  0  0  0  0  0  0  0
   32.9283   41.9305    7.2947 H   0  0  0  0  0  0  0  0  0  0  0  0
   32.7284   43.5146    7.9532 H   0  0  0  0  0  0  0  0  0  0  0  0
   34.4591   44.0465    6.5295 H   0  0  0  0  0  0  0  0  0  0  0  0
   34.9983   42.4222    6.3933 H   0  0  0  0  0  0  0  0  0  0  0  0
   36.6711   43.1265    7.8706 H   0  0  0  0  0  0  0  0  0  0  0  0
   34.8465   45.2973    8.7668 H   0  0  0  0  0  0  0  0  0  0  0  0
   36.1221   45.4373    7.5809 H   0  0  0  0  0  0  0  0  0  0  0  0
   36.5125   45.0781    9.2458 H   0  0  0  0  0  0  0  0  0  0  0  0
   35.2031   43.3303   10.2108 H   0  0  0  0  0  0  0  0  0  0  0  0
   35.8423   41.8473    9.5375 H   0  0  0  0  0  0  0  0  0  0  0  0
   30.7144   45.8249    5.6021 H   0  0  0  0  0  0  0  0  0  0  0  0
   32.7608   45.9864    4.3667 H   0  0  0  0  0  0  0  0  0  0  0  0
   33.4633   49.7108    6.0986 H   0  0  0  0  0  0  0  0  0  0  0  0
   31.4094   49.5316    7.3293 H   0  0  0  0  0  0  0  0  0  0  0  0
   34.2934   47.6879    3.3229 H   0  0  0  0  0  0  0  0  0  0  0  0
   34.9695   48.8742    4.4364 H   0  0  0  0  0  0  0  0  0  0  0  0
   36.3633   48.2888    6.1295 H   0  0  0  0  0  0  0  0  0  0  0  0
   37.0144   48.2920    4.4970 H   0  0  0  0  0  0  0  0  0  0  0  0
   37.4233   46.1331    6.5356 H   0  0  0  0  0  0  0  0  0  0  0  0
   38.6072   47.3276    6.0618 H   0  0  0  0  0  0  0  0  0  0  0  0
   38.0598   46.1347    4.9084 H   0  0  0  0  0  0  0  0  0  0  0  0
   35.5500   46.7240    2.7480 H   0  0  0  0  0  0  0  0  0  0  0  0
   37.0341   46.2943    3.5705 H   0  0  0  0  0  0  0  0  0  0  0  0
   34.4652   44.7152    3.6635 H   0  0  0  0  0  0  0  0  0  0  0  0
   35.9464   44.2889    4.4866 H   0  0  0  0  0  0  0  0  0  0  0  0
   35.8851   44.2856    2.7404 H   0  0  0  0  0  0  0  0  0  0  0  0
  1  2  2  0  0  0  0
  2  3  1  0  0  0  0
  2 13  1  0  0  0  0
  3  4  1  0  0  0  0
  5  6  1  0  0  0  0
  5  3  1  0  0  0  0
  5 38  1  1  0  0  0
  6  7  1  0  0  0  0
  8  6  1  0  0  0  0
  8 39  1  0  0  0  0
  9  8  2  0  0  0  0
  9 40  1  0  0  0  0
 10  9  1  0  0  0  0
 10 12  1  0  0  0  0
 11 10  1  0  0  0  0
 12  1  1  0  0  0  0
 12  5  1  0  0  0  0
 13 14  2  0  0  0  0
 13 18  1  0  0  0  0
 14 15  1  0  0  0  0
 14 41  1  0  0  0  0
 15 16  2  0  0  0  0
 15 42  1  0  0  0  0
 16 19  1  0  0  0  0
 17 16  1  0  0  0  0
 17 43  1  0  0  0  0
 18 17  2  0  0  0  0
 18 44  1  0  0  0  0
 19 45  1  0  0  0  0
 19 46  1  0  0  0  0
 20 25  1  0  0  0  0
 20 19  1  0  0  0  0
 21 20  1  0  0  0  0
 21 47  1  0  0  0  0
 21 48  1  0  0  0  0
 22 21  1  0  0  0  0
 22 23  1  0  0  0  0
 22 49  1  0  0  0  0
 22 50  1  0  0  0  0
 23 24  1  0  0  0  0
 23 25  1  0  0  0  0
 23 51  1  6  0  0  0
 24 52  1  0  0  0  0
 24 53  1  0  0  0  0
 24 54  1  0  0  0  0
 25 55  1  0  0  0  0
 25 56  1  0  0  0  0
 26 31  1  0  0  0  0
 26  1  1  0  0  0  0
 27 26  2  0  0  0  0
 27 57  1  0  0  0  0
 28 29  2  0  0  0  0
 28 27  1  0  0  0  0
 28 58  1  0  0  0  0
 29 30  1  0  0  0  0
 30 31  2  0  0  0  0
 30 59  1  0  0  0  0
 31 60  1  0  0  0  0
 32 33  1  0  0  0  0
 32 29  1  0  0  0  0
 32 61  1  0  0  0  0
 32 62  1  0  0  0  0
 33 34  1  0  0  0  0
 34 35  1  0  0  0  0
 34 63  1  0  0  0  0
 34 64  1  0  0  0  0
 35 65  1  0  0  0  0
 35 66  1  0  0  0  0
 35 67  1  0  0  0  0
 36 37  1  0  0  0  0
 36 33  1  0  0  0  0
 36 68  1  0  0  0  0
 36 69  1  0  0  0  0
 37 70  1  0  0  0  0
 37 71  1  0  0  0  0
 37 72  1  0  0  0  0
M  END
>  <MODEL>
1

>  <REMARK>
 VINA RESULT:      -7.6      0.000      0.000
  8 active torsions:
  status: ('A' for Active; 'I' for Inactive)
    1  A    between atoms: C_2  and  N_3 
    2  A    between atoms: N_3  and  C_4 
    3  A    between atoms: N_3  and  C_6 
    4  A    between atoms: C_6  and  C_7 
    5  A    between atoms: C_10  and  C_11 
    6  A    between atoms: C_12  and  C_13 
    7  A    between atoms: C_16  and  C_17 
    8  A    between atoms: C_17  and  N_18 

>  <TORSDO>
F 8

$$$$
resistance_project/docking/5319283d3047ac55/Q9UM73_WT/docked/molecule_0011_out.pdbqt
 OpenBabel09232609193D

 72 76  0  0  1  0  0  0  0  0999 V2000
   29.6270   47.4720    7.4520 C   0  0  0  0  0  0  0  0  0  0  0  0
   29.3720   46.3670    8.2470 C   0  0  0  0  0  0  0  0  0  0  0  0
   28.0780   46.4320    8.6090 N   0  0  0  0  0  0  0  0  0  0  0  0
   27.6030   45.7500    9.1990 H   0  0  0  0  0  0  0  0  0  0  0  0
   27.5020   47.5290    8.0800 C   0  0  2  0  0  0  0  0  0  0  0  0
   26.2460   48.0230    8.1530 N   0  0  0  0  0  0  0  0  0  0  0  0
   25.5410   47.5250    8.6960 H   0  0  0  0  0  0  0  0  0  0  0  0
   25.9130   49.1600    7.5220 C   0  0  0  0  0  0  0  0  0  0  0  0
   26.8990   49.8000    6.7980 C   0  0  0  0  0  0  0  0  0  0  0  0
   28.1430   49.2880    6.7420 N   0  0  0  0  0  0  0  0  0  0  0  0
   28.8580   49.7760    6.2020 H   0  0  0  0  0  0  0  0  0  0  0  0
   28.4650   48.1520    7.3760 N   0  0  0  0  0  0  0  0  0  0  0  0
   30.2840   45.3030    8.6490 C   0  0  0  0  0  0  0  0  0  0  0  0
   29.9660   43.9620    8.5590 C   0  0  0  0  0  0  0  0  0  0  0  0
   30.8920   42.9940    8.9620 C   0  0  0  0  0  0  0  0  0  0  0  0
   32.1330   43.3890    9.4520 C   0  0  0  0  0  0  0  0  0  0  0  0
   32.4560   44.7180    9.5430 C   0  0  0  0  0  0  0  0  0  0  0  0
   31.5240   45.6550    9.1400 C   0  0  0  0  0  0  0  0  0  0  0  0
   33.1580   42.4050    9.8950 C   0  0  0  0  0  0  0  0  0  0  0  0
   34.1280   42.2380    8.8440 N   0  0  0  0  0  0  0  0  0  0  0  0
   33.7300   42.8770    7.6070 C   0  0  0  0  0  0  0  0  0  0  0  0
   34.9800   43.4920    7.0160 C   0  0  0  0  0  0  0  0  0  0  0  0
   35.9220   43.6730    8.1870 C   0  0  1  0  0  0  0  0  0  0  0  0
   35.9210   45.1100    8.6840 C   0  0  0  0  0  0  0  0  0  0  0  0
   35.4080   42.7410    9.2310 C   0  0  0  0  0  0  0  0  0  0  0  0
   30.9140   47.7900    6.8440 C   0  0  0  0  0  0  0  0  0  0  0  0
   31.6710   48.8540    7.2890 C   0  0  0  0  0  0  0  0  0  0  0  0
   32.8940   49.1910    6.7430 C   0  0  0  0  0  0  0  0  0  0  0  0
   33.4010   48.4320    5.6920 C   0  0  0  0  0  0  0  0  0  0  0  0
   32.6720   47.3750    5.2350 C   0  0  0  0  0  0  0  0  0  0  0  0
   31.4430   47.0540    5.7980 C   0  0  0  0  0  0  0  0  0  0  0  0
   34.7190   48.8480    5.1550 C   0  0  0  0  0  0  0  0  0  0  0  0
   35.8140   48.2720    5.9220 N   0  0  0  0  0  0  0  0  0  0  0  0
   36.6590   49.4000    6.3420 C   0  0  0  0  0  0  0  0  0  0  0  0
   36.4860   49.6850    7.8170 C   0  0  0  0  0  0  0  0  0  0  0  0
   36.6270   47.5570    4.9240 C   0  0  0  0  0  0  0  0  0  0  0  0
   37.6190   46.6270    5.6310 C   0  0  0  0  0  0  0  0  0  0  0  0
   26.4964   47.4625    8.4395 H   0  0  0  0  0  0  0  0  0  0  0  0
   24.9556   49.5415    7.5761 H   0  0  0  0  0  0  0  0  0  0  0  0
   26.6814   50.6756    6.2970 H   0  0  0  0  0  0  0  0  0  0  0  0
   29.0446   43.6739    8.1942 H   0  0  0  0  0  0  0  0  0  0  0  0
   30.6558   41.9915    8.8962 H   0  0  0  0  0  0  0  0  0  0  0  0
   33.3764   45.0127    9.9051 H   0  0  0  0  0  0  0  0  0  0  0  0
   31.7647   46.6562    9.2090 H   0  0  0  0  0  0  0  0  0  0  0  0
   33.6434   42.7647   10.7781 H   0  0  0  0  0  0  0  0  0  0  0  0
   32.6910   41.4666   10.1103 H   0  0  0  0  0  0  0  0  0  0  0  0
   33.3203   42.1538    6.9331 H   0  0  0  0  0  0  0  0  0  0  0  0
   32.9796   43.6198    7.7806 H   0  0  0  0  0  0  0  0  0  0  0  0
   34.7567   44.4359    6.5641 H   0  0  0  0  0  0  0  0  0  0  0  0
   35.4056   42.8776    6.2503 H   0  0  0  0  0  0  0  0  0  0  0  0
   36.9369   43.4629    7.9211 H   0  0  0  0  0  0  0  0  0  0  0  0
   34.9279   45.3881    8.9692 H   0  0  0  0  0  0  0  0  0  0  0  0
   36.2625   45.7575    7.9036 H   0  0  0  0  0  0  0  0  0  0  0  0
   36.5719   45.1956    9.5289 H   0  0  0  0  0  0  0  0  0  0  0  0
   35.3180   43.2637   10.1603 H   0  0  0  0  0  0  0  0  0  0  0  0
   36.0898   41.9237    9.3411 H   0  0  0  0  0  0  0  0  0  0  0  0
   31.3060   49.4254    8.0670 H   0  0  0  0  0  0  0  0  0  0  0  0
   33.4256   49.9959    7.1098 H   0  0  0  0  0  0  0  0  0  0  0  0
   33.0389   46.8036    4.4579 H   0  0  0  0  0  0  0  0  0  0  0  0
   30.9131   46.2493    5.4282 H   0  0  0  0  0  0  0  0  0  0  0  0
   34.7898   49.9149    5.1954 H   0  0  0  0  0  0  0  0  0  0  0  0
   34.7957   48.4989    4.1465 H   0  0  0  0  0  0  0  0  0  0  0  0
   36.3850   50.2701    5.7827 H   0  0  0  0  0  0  0  0  0  0  0  0
   37.6825   49.1459    6.1610 H   0  0  0  0  0  0  0  0  0  0  0  0
   35.4658   49.9410    8.0136 H   0  0  0  0  0  0  0  0  0  0  0  0
   37.1190   50.5001    8.0994 H   0  0  0  0  0  0  0  0  0  0  0  0
   36.7508   48.8156    8.3817 H   0  0  0  0  0  0  0  0  0  0  0  0
   35.9858   46.9781    4.2925 H   0  0  0  0  0  0  0  0  0  0  0  0
   37.1680   48.2677    4.3349 H   0  0  0  0  0  0  0  0  0  0  0  0
   37.0815   45.9146    6.2213 H   0  0  0  0  0  0  0  0  0  0  0  0
   38.2597   47.2042    6.2645 H   0  0  0  0  0  0  0  0  0  0  0  0
   38.2084   46.1129    4.9008 H   0  0  0  0  0  0  0  0  0  0  0  0
  1  2  2  0  0  0  0
  2  3  1  0  0  0  0
  2 13  1  0  0  0  0
  3  4  1  0  0  0  0
  5  6  1  0  0  0  0
  5  3  1  0  0  0  0
  5 38  1  1  0  0  0
  6  7  1  0  0  0  0
  8  6  1  0  0  0  0
  8 39  1  0  0  0  0
  9  8  2  0  0  0  0
  9 40  1  0  0  0  0
 10  9  1  0  0  0  0
 10 12  1  0  0  0  0
 11 10  1  0  0  0  0
 12  1  1  0  0  0  0
 12  5  1  0  0  0  0
 13 18  1  0  0  0  0
 14 13  2  0  0  0  0
 14 15  1  0  0  0  0
 14 41  1  0  0  0  0
 15 16  2  0  0  0  0
 15 42  1  0  0  0  0
 16 17  1  0  0  0  0
 16 19  1  0  0  0  0
 17 43  1  0  0  0  0
 18 17  2  0  0  0  0
 18 44  1  0  0  0  0
 19 45  1  0  0  0  0
 19 46  1  0  0  0  0
 20 25  1  0  0  0  0
 20 19  1  0  0  0  0
 21 20  1  0  0  0  0
 21 47  1  0  0  0  0
 21 48  1  0  0  0  0
 22 21  1  0  0  0  0
 22 23  1  0  0  0  0
 22 49  1  0  0  0  0
 22 50  1  0  0  0  0
 23 24  1  0  0  0  0
 23 25  1  0  0  0  0
 23 51  1  6  0  0  0
 24 52  1  0  0  0  0
 24 53  1  0  0  0  0
 24 54  1  0  0  0  0
 25 55  1  0  0  0  0
 25 56  1  0  0  0  0
 26 27  1  0  0  0  0
 26  1  1  0  0  0  0
 27 57  1  0  0  0  0
 28 27  2  0  0  0  0
 28 58  1  0  0  0  0
 29 28  1  0  0  0  0
 30 29  2  0  0  0  0
 30 31  1  0  0  0  0
 30 59  1  0  0  0  0
 31 26  2  0  0  0  0
 31 60  1  0  0  0  0
 32 29  1  0  0  0  0
 32 33  1  0  0  0  0
 32 61  1  0  0  0  0
 32 62  1  0  0  0  0
 33 34  1  0  0  0  0
 34 35  1  0  0  0  0
 34 63  1  0  0  0  0
 34 64  1  0  0  0  0
 35 65  1  0  0  0  0
 35 66  1  0  0  0  0
 35 67  1  0  0  0  0
 36 37  1  0  0  0  0
 36 33  1  0  0  0  0
 36 68  1  0  0  0  0
 36 69  1  0  0  0  0
 37 70  1  0  0  0  0
 37 71  1  0  0  0  0
 37 72  1  0  0  0  0
M  END
>  <REMARK>
 VINA RESULT:      -7.5      0.843      1.387
  8 active torsions:
  status: ('A' for Active; 'I' for Inactive)
    1  A    between atoms: C_2  and  N_3 
    2  A    between atoms: N_3  and  C_4 
    3  A    between atoms: N_3  and  C_6 
    4  A    between atoms: C_6  and  C_7 
    5  A    between atoms: C_10  and  C_11 
    6  A    between atoms: C_12  and  C_13 
    7  A    between atoms: C_16  and  C_17 
    8  A    between atoms: C_17  and  N_18 

>  <TORSDO>
F 8

$$$$
resistance_project/docking/5319283d3047ac55/Q9UM73_WT/docked/molecule_0011_out.pdbqt
 OpenBabel09232609193D

 72 76  0  0  1  0  0  0  0  0999 V2000
   29.5080   46.3490    8.3250 C   0  0  0  0  0  0  0  0  0  0  0  0
   28.3010   47.0170    8.4530 C   0  0  0  0  0  0  0  0  0  0  0  0
   27.5540   46.3150    9.3240 N   0  0  0  0  0  0  0  0  0  0  0  0
   26.6100   46.5670    9.6170 H   0  0  0  0  0  0  0  0  0  0  0  0
   28.2320   45.2320    9.7520 C   0  0  2  0  0  0  0  0  0  0  0  0
   27.9130   44.2400   10.6140 N   0  0  0  0  0  0  0  0  0  0  0  0
   27.0000   44.2430   11.0670 H   0  0  0  0  0  0  0  0  0  0  0  0
   28.7820   43.2520   10.8800 C   0  0  0  0  0  0  0  0  0  0  0  0
   30.0060   43.2900   10.2430 C   0  0  0  0  0  0  0  0  0  0  0  0
   30.2990   44.2880    9.3890 N   0  0  0  0  0  0  0  0  0  0  0  0
   31.2090   44.2980    8.9290 H   0  0  0  0  0  0  0  0  0  0  0  0
   29.4240   45.2700    9.1300 N   0  0  0  0  0  0  0  0  0  0  0  0
   27.8660   48.2450    7.8020 C   0  0  0  0  0  0  0  0  0  0  0  0
   28.7340   49.1060    7.1570 C   0  0  0  0  0  0  0  0  0  0  0  0
   28.2460   50.2680    6.5520 C   0  0  0  0  0  0  0  0  0  0  0  0
   26.8850   50.5530    6.6010 C   0  0  0  0  0  0  0  0  0  0  0  0
   26.0180   49.7030    7.2380 C   0  0  0  0  0  0  0  0  0  0  0  0
   26.5240   48.5620    7.8300 C   0  0  0  0  0  0  0  0  0  0  0  0
   26.3090   51.7740    5.9750 C   0  0  0  0  0  0  0  0  0  0  0  0
   27.0320   52.9250    6.4500 N   0  0  0  0  0  0  0  0  0  0  0  0
   26.7720   54.1150    5.6680 C   0  0  0  0  0  0  0  0  0  0  0  0
   26.6900   55.2670    6.6470 C   0  0  0  0  0  0  0  0  0  0  0  0
   26.3460   54.6310    7.9760 C   0  0  1  0  0  0  0  0  0  0  0  0
   24.8650   54.7690    8.2900 C   0  0  0  0  0  0  0  0  0  0  0  0
   26.7320   53.2000    7.8200 C   0  0  0  0  0  0  0  0  0  0  0  0
   30.6150   46.7710    7.4740 C   0  0  0  0  0  0  0  0  0  0  0  0
   31.6140   47.5900    7.9560 C   0  0  0  0  0  0  0  0  0  0  0  0
   32.6800   48.0130    7.1850 C   0  0  0  0  0  0  0  0  0  0  0  0
   32.7640   47.6040    5.8580 C   0  0  0  0  0  0  0  0  0  0  0  0
   31.7880   46.7950    5.3590 C   0  0  0  0  0  0  0  0  0  0  0  0
   30.7250   46.3800    6.1500 C   0  0  0  0  0  0  0  0  0  0  0  0
   33.9340   48.0940    5.0900 C   0  0  0  0  0  0  0  0  0  0  0  0
   35.1860   47.7440    5.7450 N   0  0  0  0  0  0  0  0  0  0  0  0
   35.9990   48.9700    5.7600 C   0  0  0  0  0  0  0  0  0  0  0  0
   36.0660   49.5570    7.1530 C   0  0  0  0  0  0  0  0  0  0  0  0
   35.8700   46.8630    4.7850 C   0  0  0  0  0  0  0  0  0  0  0  0
   35.7180   45.4010    5.2190 C   0  0  0  0  0  0  0  0  0  0  0  0
   27.5394   44.7688   10.4233 H   0  0  0  0  0  0  0  0  0  0  0  0
   28.5438   42.4922   11.5364 H   0  0  0  0  0  0  0  0  0  0  0  0
   30.7008   42.5484   10.4228 H   0  0  0  0  0  0  0  0  0  0  0  0
   29.7427   48.8909    7.1220 H   0  0  0  0  0  0  0  0  0  0  0  0
   28.8929   50.9121    6.0707 H   0  0  0  0  0  0  0  0  0  0  0  0
   25.0079   49.9114    7.2745 H   0  0  0  0  0  0  0  0  0  0  0  0
   25.8729   47.9223    8.3116 H   0  0  0  0  0  0  0  0  0  0  0  0
   26.3973   51.7081    4.9107 H   0  0  0  0  0  0  0  0  0  0  0  0
   25.2748   51.8620    6.2348 H   0  0  0  0  0  0  0  0  0  0  0  0
   25.8477   54.0141    5.1385 H   0  0  0  0  0  0  0  0  0  0  0  0
   27.5437   54.2776    4.9448 H   0  0  0  0  0  0  0  0  0  0  0  0
   25.9272   55.9570    6.3521 H   0  0  0  0  0  0  0  0  0  0  0  0
   27.6045   55.8206    6.6922 H   0  0  0  0  0  0  0  0  0  0  0  0
   26.8572   55.1016    8.7897 H   0  0  0  0  0  0  0  0  0  0  0  0
   24.2911   54.3153    7.5092 H   0  0  0  0  0  0  0  0  0  0  0  0
   24.6110   55.8058    8.3630 H   0  0  0  0  0  0  0  0  0  0  0  0
   24.6505   54.2830    9.2188 H   0  0  0  0  0  0  0  0  0  0  0  0
   27.5946   52.9975    8.4199 H   0  0  0  0  0  0  0  0  0  0  0  0
   25.9195   52.5790    8.1348 H   0  0  0  0  0  0  0  0  0  0  0  0
   31.5633   47.9017    8.9385 H   0  0  0  0  0  0  0  0  0  0  0  0
   33.4057   48.6255    7.5891 H   0  0  0  0  0  0  0  0  0  0  0  0
   31.8397   46.4852    4.3759 H   0  0  0  0  0  0  0  0  0  0  0  0
   30.0015   45.7671    5.7426 H   0  0  0  0  0  0  0  0  0  0  0  0
   33.9177   47.6557    4.1140 H   0  0  0  0  0  0  0  0  0  0  0  0
   33.8733   49.1606    5.0294 H   0  0  0  0  0  0  0  0  0  0  0  0
   35.5621   49.6881    5.0980 H   0  0  0  0  0  0  0  0  0  0  0  0
   36.9917   48.7256    5.4441 H   0  0  0  0  0  0  0  0  0  0  0  0
   35.0791   49.8067    7.4827 H   0  0  0  0  0  0  0  0  0  0  0  0
   36.6714   50.4392    7.1396 H   0  0  0  0  0  0  0  0  0  0  0  0
   36.4948   48.8403    7.8218 H   0  0  0  0  0  0  0  0  0  0  0  0
   35.4376   46.9919    3.8148 H   0  0  0  0  0  0  0  0  0  0  0  0
   36.9094   47.1151    4.7541 H   0  0  0  0  0  0  0  0  0  0  0  0
   34.6797   45.1446    5.2512 H   0  0  0  0  0  0  0  0  0  0  0  0
   36.1478   45.2707    6.1902 H   0  0  0  0  0  0  0  0  0  0  0  0
   36.2204   44.7670    4.5186 H   0  0  0  0  0  0  0  0  0  0  0  0
  1  2  2  0  0  0  0
  1 12  1  0  0  0  0
  2  3  1  0  0  0  0
  3  4  1  0  0  0  0
  3  5  1  0  0  0  0
  5  6  1  0  0  0  0
  5 38  1  6  0  0  0
  6  8  1  0  0  0  0
  6  7  1  0  0  0  0
  8 39  1  0  0  0  0
  9  8  2  0  0  0  0
  9 40  1  0  0  0  0
 10  9  1  0  0  0  0
 11 10  1  0  0  0  0
 12 10  1  0  0  0  0
 12  5  1  0  0  0  0
 13 18  1  0  0  0  0
 13  2  1  0  0  0  0
 14 13  2  0  0  0  0
 14 41  1  0  0  0  0
 15 16  2  0  0  0  0
 15 14  1  0  0  0  0
 15 42  1  0  0  0  0
 16 17  1  0  0  0  0
 17 18  2  0  0  0  0
 17 43  1  0  0  0  0
 18 44  1  0  0  0  0
 19 20  1  0  0  0  0
 19 16  1  0  0  0  0
 19 45  1  0  0  0  0
 19 46  1  0  0  0  0
 20 25  1  0  0  0  0
 21 20  1  0  0  0  0
 21 22  1  0  0  0  0
 21 47  1  0  0  0  0
 21 48  1  0  0  0  0
 22 23  1  0  0  0  0
 22 49  1  0  0  0  0
 22 50  1  0  0  0  0
 23 24  1  0  0  0  0
 23 51  1  1  0  0  0
 24 52  1  0  0  0  0
 24 53  1  0  0  0  0
 24 54  1  0  0  0  0
 25 23  1  0  0  0  0
 25 55  1  0  0  0  0
 25 56  1  0  0  0  0
 26 27  1  0  0  0  0
 26  1  1  0  0  0  0
 27 57  1  0  0  0  0
 28 27  2  0  0  0  0
 28 58  1  0  0  0  0
 29 28  1  0  0  0  0
 30 29  2  0  0  0  0
 30 31  1  0  0  0  0
 30 59  1  0  0  0  0
 31 26  2  0  0  0  0
 31 60  1  0  0  0  0
 32 33  1  0  0  0  0
 32 29  1  0  0  0  0
 32 61  1  0  0  0  0
 32 62  1  0  0  0  0
 33 34  1  0  0  0  0
 34 35  1  0  0  0  0
 34 63  1  0  0  0  0
 34 64  1  0  0  0  0
 35 65  1  0  0  0  0
 35 66  1  0  0  0  0
 35 67  1  0  0  0  0
 36 37  1  0  0  0  0
 36 33  1  0  0  0  0
 36 68  1  0  0  0  0
 36 69  1  0  0  0  0
 37 70  1  0  0  0  0
 37 71  1  0  0  0  0
 37 72  1  0  0  0  0
M  END
>  <REMARK>
 VINA RESULT:      -7.5      2.441      7.439
  8 active torsions:
  status: ('A' for Active; 'I' for Inactive)
    1  A    between atoms: C_2  and  N_3 
    2  A    between atoms: N_3  and  C_4 
    3  A    between atoms: N_3  and  C_6 
    4  A    between atoms: C_6  and  C_7 
    5  A    between atoms: C_10  and  C_11 
    6  A    between atoms: C_12  and  C_13 
    7  A    between atoms: C_16  and  C_17 
    8  A    between atoms: C_17  and  N_18 

>  <TORSDO>
F 8

$$$$
resistance_project/docking/5319283d3047ac55/Q9UM73_WT/docked/molecule_0011_out.pdbqt
 OpenBabel09232609193D

 72 76  0  0  1  0  0  0  0  0999 V2000
   28.6090   48.2650    7.4230 C   0  0  0  0  0  0  0  0  0  0  0  0
   28.1370   47.1590    8.1110 C   0  0  0  0  0  0  0  0  0  0  0  0
   26.8060   47.3100    8.2330 N   0  0  0  0  0  0  0  0  0  0  0  0
   26.1850   46.6490    8.6970 H   0  0  0  0  0  0  0  0  0  0  0  0
   26.4140   48.4630    7.6550 C   0  0  2  0  0  0  0  0  0  0  0  0
   25.2020   49.0470    7.5190 N   0  0  0  0  0  0  0  0  0  0  0  0
   24.3770   48.5870    7.9030 H   0  0  0  0  0  0  0  0  0  0  0  0
   25.0700   50.2230    6.8870 C   0  0  0  0  0  0  0  0  0  0  0  0
   26.2140   50.8090    6.3830 C   0  0  0  0  0  0  0  0  0  0  0  0
   27.4090   50.2070    6.5320 N   0  0  0  0  0  0  0  0  0  0  0  0
   28.2420   50.6570    6.1530 H   0  0  0  0  0  0  0  0  0  0  0  0
   27.5300   49.0320    7.1650 N   0  0  0  0  0  0  0  0  0  0  0  0
   28.8850   46.0190    8.6260 C   0  0  0  0  0  0  0  0  0  0  0  0
   28.4720   45.2750    9.7130 C   0  0  0  0  0  0  0  0  0  0  0  0
   29.2400   44.1920   10.1530 C   0  0  0  0  0  0  0  0  0  0  0  0
   30.4200   43.8690    9.4900 C   0  0  0  0  0  0  0  0  0  0  0  0
   30.8350   44.6030    8.4090 C   0  0  0  0  0  0  0  0  0  0  0  0
   30.0600   45.6690    7.9950 C   0  0  0  0  0  0  0  0  0  0  0  0
   31.2780   42.7280    9.9120 C   0  0  0  0  0  0  0  0  0  0  0  0
   32.6290   42.9790    9.4800 N   0  0  0  0  0  0  0  0  0  0  0  0
   33.4890   43.4230   10.5560 C   0  0  0  0  0  0  0  0  0  0  0  0
   34.8280   42.7510   10.3450 C   0  0  0  0  0  0  0  0  0  0  0  0
   34.5280   41.5290    9.5040 C   0  0  1  0  0  0  0  0  0  0  0  0
   34.4690   40.2700   10.3540 C   0  0  0  0  0  0  0  0  0  0  0  0
   33.2070   41.8190    8.8770 C   0  0  0  0  0  0  0  0  0  0  0  0
   30.0050   48.5040    7.0730 C   0  0  0  0  0  0  0  0  0  0  0  0
   30.6040   47.8310    6.0290 C   0  0  0  0  0  0  0  0  0  0  0  0
   31.9220   48.0260    5.6630 C   0  0  0  0  0  0  0  0  0  0  0  0
   32.6960   48.9400    6.3730 C   0  0  0  0  0  0  0  0  0  0  0  0
   32.1260   49.6170    7.4090 C   0  0  0  0  0  0  0  0  0  0  0  0
   30.7990   49.4060    7.7600 C   0  0  0  0  0  0  0  0  0  0  0  0
   34.1010   49.1000    5.9260 C   0  0  0  0  0  0  0  0  0  0  0  0
   34.9960   49.3290    7.0510 N   0  0  0  0  0  0  0  0  0  0  0  0
   35.9860   50.3160    6.5940 C   0  0  0  0  0  0  0  0  0  0  0  0
   36.9840   50.6260    7.6880 C   0  0  0  0  0  0  0  0  0  0  0  0
   35.7590   48.0760    7.1760 C   0  0  0  0  0  0  0  0  0  0  0  0
   35.2480   47.2730    8.3770 C   0  0  0  0  0  0  0  0  0  0  0  0
   25.3576   48.4650    7.8250 H   0  0  0  0  0  0  0  0  0  0  0  0
   24.1473   50.6730    6.7815 H   0  0  0  0  0  0  0  0  0  0  0  0
   26.1528   51.7133    5.8894 H   0  0  0  0  0  0  0  0  0  0  0  0
   27.5959   45.5181   10.2013 H   0  0  0  0  0  0  0  0  0  0  0  0
   28.9329   43.6350   10.9657 H   0  0  0  0  0  0  0  0  0  0  0  0
   31.7087   44.3640    7.9145 H   0  0  0  0  0  0  0  0  0  0  0  0
   30.3722   46.2242    7.1830 H   0  0  0  0  0  0  0  0  0  0  0  0
   31.2527   42.6338   10.9775 H   0  0  0  0  0  0  0  0  0  0  0  0
   30.9184   41.8208    9.4732 H   0  0  0  0  0  0  0  0  0  0  0  0
   33.0766   43.1357   11.5006 H   0  0  0  0  0  0  0  0  0  0  0  0
   33.5879   44.4884   10.5561 H   0  0  0  0  0  0  0  0  0  0  0  0
   35.4998   43.4056    9.8301 H   0  0  0  0  0  0  0  0  0  0  0  0
   35.2981   42.4945   11.2713 H   0  0  0  0  0  0  0  0  0  0  0  0
   35.2904   41.3467    8.7757 H   0  0  0  0  0  0  0  0  0  0  0  0
   33.7201   40.3846   11.1096 H   0  0  0  0  0  0  0  0  0  0  0  0
   35.4201   40.1069   10.8163 H   0  0  0  0  0  0  0  0  0  0  0  0
   34.2253   39.4324    9.7344 H   0  0  0  0  0  0  0  0  0  0  0  0
   33.3413   41.9926    7.8298 H   0  0  0  0  0  0  0  0  0  0  0  0
   32.5554   40.9830    9.0232 H   0  0  0  0  0  0  0  0  0  0  0  0
   30.0413   47.1496    5.4960 H   0  0  0  0  0  0  0  0  0  0  0  0
   32.3278   47.5005    4.8729 H   0  0  0  0  0  0  0  0  0  0  0  0
   32.6897   50.2978    7.9417 H   0  0  0  0  0  0  0  0  0  0  0  0
   30.3960   49.9333    8.5503 H   0  0  0  0  0  0  0  0  0  0  0  0
   34.1607   49.9344    5.2588 H   0  0  0  0  0  0  0  0  0  0  0  0
   34.4021   48.1979    5.4357 H   0  0  0  0  0  0  0  0  0  0  0  0
   35.4800   51.2168    6.3159 H   0  0  0  0  0  0  0  0  0  0  0  0
   36.5126   49.9092    5.7561 H   0  0  0  0  0  0  0  0  0  0  0  0
   36.4709   51.0341    8.5336 H   0  0  0  0  0  0  0  0  0  0  0  0
   37.6990   51.3360    7.3279 H   0  0  0  0  0  0  0  0  0  0  0  0
   37.4879   49.7272    7.9762 H   0  0  0  0  0  0  0  0  0  0  0  0
   36.7950   48.3038    7.3162 H   0  0  0  0  0  0  0  0  0  0  0  0
   35.6339   47.4965    6.2853 H   0  0  0  0  0  0  0  0  0  0  0  0
   35.3715   47.8494    9.2700 H   0  0  0  0  0  0  0  0  0  0  0  0
   35.8043   46.3628    8.4602 H   0  0  0  0  0  0  0  0  0  0  0  0
   34.2114   47.0462    8.2394 H   0  0  0  0  0  0  0  0  0  0  0  0
  1  2  2  0  0  0  0
  2  3  1  0  0  0  0
  2 13  1  0  0  0  0
  3  4  1  0  0  0  0
  5  3  1  0  0  0  0
  5 38  1  1  0  0  0
  6  5  1  0  0  0  0
  6  7  1  0  0  0  0
  8  6  1  0  0  0  0
  8 39  1  0  0  0  0
  9 10  1  0  0  0  0
  9  8  2  0  0  0  0
  9 40  1  0  0  0  0
 10 12  1  0  0  0  0
 11 10  1  0  0  0  0
 12  1  1  0  0  0  0
 12  5  1  0  0  0  0
 13 14  2  0  0  0  0
 14 15  1  0  0  0  0
 14 41  1  0  0  0  0
 15 42  1  0  0  0  0
 16 19  1  0  0  0  0
 16 15  2  0  0  0  0
 17 16  1  0  0  0  0
 17 43  1  0  0  0  0
 18 17  2  0  0  0  0
 18 13  1  0  0  0  0
 18 44  1  0  0  0  0
 19 45  1  0  0  0  0
 19 46  1  0  0  0  0
 20 19  1  0  0  0  0
 20 21  1  0  0  0  0
 21 47  1  0  0  0  0
 21 48  1  0  0  0  0
 22 21  1  0  0  0  0
 22 49  1  0  0  0  0
 22 50  1  0  0  0  0
 23 22  1  0  0  0  0
 23 24  1  0  0  0  0
 23 51  1  6  0  0  0
 24 52  1  0  0  0  0
 24 53  1  0  0  0  0
 24 54  1  0  0  0  0
 25 20  1  0  0  0  0
 25 23  1  0  0  0  0
 25 55  1  0  0  0  0
 25 56  1  0  0  0  0
 26  1  1  0  0  0  0
 26 31  2  0  0  0  0
 27 26  1  0  0  0  0
 27 57  1  0  0  0  0
 28 27  2  0  0  0  0
 28 29  1  0  0  0  0
 28 58  1  0  0  0  0
 29 30  2  0  0  0  0
 30 31  1  0  0  0  0
 30 59  1  0  0  0  0
 31 60  1  0  0  0  0
 32 29  1  0  0  0  0
 32 33  1  0  0  0  0
 32 61  1  0  0  0  0
 32 62  1  0  0  0  0
 33 36  1  0  0  0  0
 34 33  1  0  0  0  0
 34 35  1  0  0  0  0
 34 63  1  0  0  0  0
 34 64  1  0  0  0  0
 35 65  1  0  0  0  0
 35 66  1  0  0  0  0
 35 67  1  0  0  0  0
 36 37  1  0  0  0  0
 36 68  1  0  0  0  0
 36 69  1  0  0  0  0
 37 70  1  0  0  0  0
 37 71  1  0  0  0  0
 37 72  1  0  0  0  0
M  END
>  <REMARK>
 VINA RESULT:      -7.4      1.892      2.431
  8 active torsions:
  status: ('A' for Active; 'I' for Inactive)
    1  A    between atoms: C_2  and  N_3 
    2  A    between atoms: N_3  and  C_4 
    3  A    between atoms: N_3  and  C_6 
    4  A    between atoms: C_6  and  C_7 
    5  A    between atoms: C_10  and  C_11 
    6  A    between atoms: C_12  and  C_13 
    7  A    between atoms: C_16  and  C_17 
    8  A    between atoms: C_17  and  N_18 

>  <TORSDO>
F 8

$$$$
resistance_project/docking/5319283d3047ac55/Q9UM73_WT/docked/molecule_0011_out.pdbqt
 OpenBabel09232609193D

 72 76  0  0  1  0  0  0  0  0999 V2000
   29.3810   46.3050    8.3740 C   0  0  0  0  0  0  0  0  0  0  0  0
   28.1110   46.8490    8.4780 C   0  0  0  0  0  0  0  0  0  0  0  0
   27.4290   46.0890    9.3540 N   0  0  0  0  0  0  0  0  0  0  0  0
   26.4610   46.2480    9.6330 H   0  0  0  0  0  0  0  0  0  0  0  0
   28.2090   45.0890    9.8080 C   0  0  2  0  0  0  0  0  0  0  0  0
   27.9840   44.0850   10.6850 N   0  0  0  0  0  0  0  0  0  0  0  0
   27.0700   44.0010   11.1290 H   0  0  0  0  0  0  0  0  0  0  0  0
   28.9450   43.1950   10.9770 C   0  0  0  0  0  0  0  0  0  0  0  0
   30.1660   43.3460   10.3520 C   0  0  0  0  0  0  0  0  0  0  0  0
   30.3660   44.3550    9.4830 N   0  0  0  0  0  0  0  0  0  0  0  0
   31.2750   44.4500    9.0310 H   0  0  0  0  0  0  0  0  0  0  0  0
   29.3990   45.2380    9.1970 N   0  0  0  0  0  0  0  0  0  0  0  0
   27.5610   48.0150    7.8000 C   0  0  0  0  0  0  0  0  0  0  0  0
   28.3450   48.9670    7.1780 C   0  0  0  0  0  0  0  0  0  0  0  0
   27.7490   50.0620    6.5450 C   0  0  0  0  0  0  0  0  0  0  0  0
   26.3630   50.1870    6.5440 C   0  0  0  0  0  0  0  0  0  0  0  0
   25.5780   49.2460    7.1590 C   0  0  0  0  0  0  0  0  0  0  0  0
   26.1910   48.1750    7.7780 C   0  0  0  0  0  0  0  0  0  0  0  0
   25.6720   51.3300    5.8870 C   0  0  0  0  0  0  0  0  0  0  0  0
   24.7340   50.8140    4.9240 N   0  0  0  0  0  0  0  0  0  0  0  0
   23.6660   51.7450    4.6270 C   0  0  0  0  0  0  0  0  0  0  0  0
   23.4030   51.6410    3.1400 C   0  0  0  0  0  0  0  0  0  0  0  0
   24.6820   51.0860    2.5510 C   0  0  1  0  0  0  0  0  0  0  0  0
   25.5290   52.1850    1.9290 C   0  0  0  0  0  0  0  0  0  0  0  0
   25.3830   50.4530    3.7040 C   0  0  0  0  0  0  0  0  0  0  0  0
   30.4490   46.8240    7.5260 C   0  0  0  0  0  0  0  0  0  0  0  0
   31.3370   47.7690    7.9940 C   0  0  0  0  0  0  0  0  0  0  0  0
   32.3630   48.2870    7.2260 C   0  0  0  0  0  0  0  0  0  0  0  0
   32.5200   47.8460    5.9160 C   0  0  0  0  0  0  0  0  0  0  0  0
   31.6550   46.9120    5.4310 C   0  0  0  0  0  0  0  0  0  0  0  0
   30.6300   46.4040    6.2190 C   0  0  0  0  0  0  0  0  0  0  0  0
   33.6410   48.4420    5.1510 C   0  0  0  0  0  0  0  0  0  0  0  0
   33.9760   49.7700    5.6420 N   0  0  0  0  0  0  0  0  0  0  0  0
   33.5320   50.7160    4.6060 C   0  0  0  0  0  0  0  0  0  0  0  0
   32.3300   51.5050    5.0750 C   0  0  0  0  0  0  0  0  0  0  0  0
   35.4460   49.8260    5.5830 C   0  0  0  0  0  0  0  0  0  0  0  0
   36.0130   50.1080    6.9790 C   0  0  0  0  0  0  0  0  0  0  0  0
   27.5563   44.5691   10.4778 H   0  0  0  0  0  0  0  0  0  0  0  0
   28.7771   42.4260   11.6444 H   0  0  0  0  0  0  0  0  0  0  0  0
   30.9302   42.6818   10.5517 H   0  0  0  0  0  0  0  0  0  0  0  0
   29.3724   48.8699    7.1805 H   0  0  0  0  0  0  0  0  0  0  0  0
   28.3341   50.7741    6.0807 H   0  0  0  0  0  0  0  0  0  0  0  0
   24.5500   49.3365    7.1592 H   0  0  0  0  0  0  0  0  0  0  0  0
   25.6014   47.4666    8.2423 H   0  0  0  0  0  0  0  0  0  0  0  0
   25.1514   51.9065    6.6229 H   0  0  0  0  0  0  0  0  0  0  0  0
   26.3890   51.9552    5.3971 H   0  0  0  0  0  0  0  0  0  0  0  0
   22.7857   51.4847    5.1767 H   0  0  0  0  0  0  0  0  0  0  0  0
   23.9363   52.7430    4.9023 H   0  0  0  0  0  0  0  0  0  0  0  0
   22.5836   50.9800    2.9488 H   0  0  0  0  0  0  0  0  0  0  0  0
   23.1418   52.5863    2.7121 H   0  0  0  0  0  0  0  0  0  0  0  0
   24.4910   50.3896    1.7614 H   0  0  0  0  0  0  0  0  0  0  0  0
   25.7583   52.9215    2.6706 H   0  0  0  0  0  0  0  0  0  0  0  0
   24.9873   52.6424    1.1276 H   0  0  0  0  0  0  0  0  0  0  0  0
   26.4375   51.7645    1.5511 H   0  0  0  0  0  0  0  0  0  0  0  0
   26.3987   50.7885    3.7295 H   0  0  0  0  0  0  0  0  0  0  0  0
   25.3567   49.3892    3.5919 H   0  0  0  0  0  0  0  0  0  0  0  0
   31.2307   48.1057    8.9637 H   0  0  0  0  0  0  0  0  0  0  0  0
   33.0050   48.9926    7.6198 H   0  0  0  0  0  0  0  0  0  0  0  0
   31.7631   46.5760    4.4612 H   0  0  0  0  0  0  0  0  0  0  0  0
   29.9898   45.6986    5.8219 H   0  0  0  0  0  0  0  0  0  0  0  0
   34.4997   47.8103    5.2437 H   0  0  0  0  0  0  0  0  0  0  0  0
   33.3402   48.5287    4.1278 H   0  0  0  0  0  0  0  0  0  0  0  0
   34.3305   51.3928    4.3842 H   0  0  0  0  0  0  0  0  0  0  0  0
   33.2578   50.1623    3.7324 H   0  0  0  0  0  0  0  0  0  0  0  0
   32.5896   52.0645    5.9493 H   0  0  0  0  0  0  0  0  0  0  0  0
   31.5302   50.8328    5.3061 H   0  0  0  0  0  0  0  0  0  0  0  0
   32.0197   52.1759    4.3013 H   0  0  0  0  0  0  0  0  0  0  0  0
   35.7449   50.6060    4.9143 H   0  0  0  0  0  0  0  0  0  0  0  0
   35.8209   48.8868    5.2333 H   0  0  0  0  0  0  0  0  0  0  0  0
   35.6403   51.0467    7.3324 H   0  0  0  0  0  0  0  0  0  0  0  0
   37.0812   50.1442    6.9295 H   0  0  0  0  0  0  0  0  0  0  0  0
   35.7132   49.3300    7.6496 H   0  0  0  0  0  0  0  0  0  0  0  0
  1  2  2  0  0  0  0
  1 12  1  0  0  0  0
  2  3  1  0  0  0  0
  3  4  1  0  0  0  0
  3  5  1  0  0  0  0
  5  6  1  0  0  0  0
  5 38  1  6  0  0  0
  6  8  1  0  0  0  0
  6  7  1  0  0  0  0
  8 39  1  0  0  0  0
  9  8  2  0  0  0  0
  9 40  1  0  0  0  0
 10  9  1  0  0  0  0
 11 10  1  0  0  0  0
 12 10  1  0  0  0  0
 12  5  1  0  0  0  0
 13  2  1  0  0  0  0
 14 13  2  0  0  0  0
 14 41  1  0  0  0  0
 15 14  1  0  0  0  0
 15 42  1  0  0  0  0
 16 15  2  0  0  0  0
 16 17  1  0  0  0  0
 17 18  2  0  0  0  0
 17 43  1  0  0  0  0
 18 13  1  0  0  0  0
 18 44  1  0  0  0  0
 19 16  1  0  0  0  0
 19 45  1  0  0  0  0
 19 46  1  0  0  0  0
 20 19  1  0  0  0  0
 21 20  1  0  0  0  0
 21 47  1  0  0  0  0
 21 48  1  0  0  0  0
 22 21  1  0  0  0  0
 22 49  1  0  0  0  0
 22 50  1  0  0  0  0
 23 22  1  0  0  0  0
 23 25  1  0  0  0  0
 23 51  1  6  0  0  0
 24 23  1  0  0  0  0
 24 52  1  0  0  0  0
 24 53  1  0  0  0  0
 24 54  1  0  0  0  0
 25 20  1  0  0  0  0
 25 55  1  0  0  0  0
 25 56  1  0  0  0  0
 26 27  1  0  0  0  0
 26  1  1  0  0  0  0
 27 57  1  0  0  0  0
 28 27  2  0  0  0  0
 28 58  1  0  0  0  0
 29 28  1  0  0  0  0
 30 29  2  0  0  0  0
 30 31  1  0  0  0  0
 30 59  1  0  0  0  0
 31 26  2  0  0  0  0
 31 60  1  0  0  0  0
 32 33  1  0  0  0  0
 32 29  1  0  0  0  0
 32 61  1  0  0  0  0
 32 62  1  0  0  0  0
 34 35  1  0  0  0  0
 34 33  1  0  0  0  0
 34 63  1  0  0  0  0
 34 64  1  0  0  0  0
 35 65  1  0  0  0  0
 35 66  1  0  0  0  0
 35 67  1  0  0  0  0
 36 33  1  0  0  0  0
 36 37  1  0  0  0  0
 36 68  1  0  0  0  0
 36 69  1  0  0  0  0
 37 70  1  0  0  0  0
 37 71  1  0  0  0  0
 37 72  1  0  0  0  0
M  END
>  <REMARK>
 VINA RESULT:      -7.4      2.906      7.711
  8 active torsions:
  status: ('A' for Active; 'I' for Inactive)
    1  A    between atoms: C_2  and  N_3 
    2  A    between atoms: N_3  and  C_4 
    3  A    between atoms: N_3  and  C_6 
    4  A    between atoms: C_6  and  C_7 
    5  A    between atoms: C_10  and  C_11 
    6  A    between atoms: C_12  and  C_13 
    7  A    between atoms: C_16  and  C_17 
    8  A    between atoms: C_17  and  N_18 

>  <TORSDO>
F 8

$$$$
resistance_project/docking/5319283d3047ac55/Q9UM73_WT/docked/molecule_0011_out.pdbqt
 OpenBabel09232609193D

 72 76  0  0  1  0  0  0  0  0999 V2000
   32.6510   49.9480    6.0430 C   0  0  0  0  0  0  0  0  0  0  0  0
   31.5940   50.8400    5.9560 C   0  0  0  0  0  0  0  0  0  0  0  0
   32.0970   52.0020    5.5020 N   0  0  0  0  0  0  0  0  0  0  0  0
   31.5520   52.8480    5.3370 H   0  0  0  0  0  0  0  0  0  0  0  0
   33.4240   51.8870    5.2980 C   0  0  2  0  0  0  0  0  0  0  0  0
   34.3560   52.7610    4.8560 N   0  0  0  0  0  0  0  0  0  0  0  0
   34.0790   53.7110    4.6110 H   0  0  0  0  0  0  0  0  0  0  0  0
   35.6420   52.3960    4.7370 C   0  0  0  0  0  0  0  0  0  0  0  0
   35.9730   51.1010    5.0810 C   0  0  0  0  0  0  0  0  0  0  0  0
   35.0260   50.2500    5.5190 N   0  0  0  0  0  0  0  0  0  0  0  0
   35.2900   49.2970    5.7680 H   0  0  0  0  0  0  0  0  0  0  0  0
   33.7440   50.6240    5.6340 N   0  0  0  0  0  0  0  0  0  0  0  0
   30.1900   50.6220    6.2780 C   0  0  0  0  0  0  0  0  0  0  0  0
   29.6060   49.3710    6.3020 C   0  0  0  0  0  0  0  0  0  0  0  0
   28.2510   49.2350    6.6200 C   0  0  0  0  0  0  0  0  0  0  0  0
   27.4950   50.3660    6.9120 C   0  0  0  0  0  0  0  0  0  0  0  0
   28.0680   51.6120    6.8900 C   0  0  0  0  0  0  0  0  0  0  0  0
   29.4080   51.7190    6.5720 C   0  0  0  0  0  0  0  0  0  0  0  0
   26.0500   50.2840    7.2570 C   0  0  0  0  0  0  0  0  0  0  0  0
   25.4640   49.1800    6.5430 N   0  0  0  0  0  0  0  0  0  0  0  0
   24.5630   48.3960    7.3620 C   0  0  0  0  0  0  0  0  0  0  0  0
   23.3930   48.0200    6.4790 C   0  0  0  0  0  0  0  0  0  0  0  0
   23.3840   49.0540    5.3730 C   0  0  1  0  0  0  0  0  0  0  0  0
   22.3430   50.1310    5.6290 C   0  0  0  0  0  0  0  0  0  0  0  0
   24.7620   49.6230    5.3810 C   0  0  0  0  0  0  0  0  0  0  0  0
   32.5470   48.5650    6.4930 C   0  0  0  0  0  0  0  0  0  0  0  0
   32.5800   48.2460    7.8350 C   0  0  0  0  0  0  0  0  0  0  0  0
   32.4850   46.9510    8.3060 C   0  0  0  0  0  0  0  0  0  0  0  0
   32.3500   45.9060    7.3960 C   0  0  0  0  0  0  0  0  0  0  0  0
   32.3150   46.1950    6.0660 C   0  0  0  0  0  0  0  0  0  0  0  0
   32.4120   47.5050    5.6130 C   0  0  0  0  0  0  0  0  0  0  0  0
   32.2520   44.5420    7.9700 C   0  0  0  0  0  0  0  0  0  0  0  0
   31.8150   44.5780    9.3590 N   0  0  0  0  0  0  0  0  0  0  0  0
   32.6210   43.5730   10.0690 C   0  0  0  0  0  0  0  0  0  0  0  0
   33.7880   44.2220   10.7810 C   0  0  0  0  0  0  0  0  0  0  0  0
   30.4580   44.0080    9.3330 C   0  0  0  0  0  0  0  0  0  0  0  0
   30.4490   42.7230    8.4970 C   0  0  0  0  0  0  0  0  0  0  0  0
   33.6953   52.8613    4.9486 H   0  0  0  0  0  0  0  0  0  0  0  0
   36.3573   53.0594    4.4005 H   0  0  0  0  0  0  0  0  0  0  0  0
   36.9517   50.7832    5.0021 H   0  0  0  0  0  0  0  0  0  0  0  0
   30.1705   48.5348    6.0849 H   0  0  0  0  0  0  0  0  0  0  0  0
   27.8139   48.3003    6.6380 H   0  0  0  0  0  0  0  0  0  0  0  0
   27.5095   52.4523    7.1066 H   0  0  0  0  0  0  0  0  0  0  0  0
   29.8404   52.6559    6.5538 H   0  0  0  0  0  0  0  0  0  0  0  0
   25.9400   50.1300    8.3101 H   0  0  0  0  0  0  0  0  0  0  0  0
   25.5591   51.1947    6.9842 H   0  0  0  0  0  0  0  0  0  0  0  0
   25.0571   47.5151    7.7152 H   0  0  0  0  0  0  0  0  0  0  0  0
   24.2383   48.9502    8.2177 H   0  0  0  0  0  0  0  0  0  0  0  0
   23.5280   47.0387    6.0745 H   0  0  0  0  0  0  0  0  0  0  0  0
   22.4706   48.0053    7.0211 H   0  0  0  0  0  0  0  0  0  0  0  0
   23.1272   48.6273    4.4260 H   0  0  0  0  0  0  0  0  0  0  0  0
   22.5417   50.6029    6.5685 H   0  0  0  0  0  0  0  0  0  0  0  0
   21.3693   49.6878    5.6513 H   0  0  0  0  0  0  0  0  0  0  0  0
   22.3850   50.8606    4.8475 H   0  0  0  0  0  0  0  0  0  0  0  0
   24.7046   50.6914    5.3870 H   0  0  0  0  0  0  0  0  0  0  0  0
   25.2842   49.2937    4.5071 H   0  0  0  0  0  0  0  0  0  0  0  0
   32.6805   49.0116    8.5196 H   0  0  0  0  0  0  0  0  0  0  0  0
   32.5137   46.7604    9.3198 H   0  0  0  0  0  0  0  0  0  0  0  0
   32.2147   45.4281    5.3827 H   0  0  0  0  0  0  0  0  0  0  0  0
   32.3828   47.6918    4.5985 H   0  0  0  0  0  0  0  0  0  0  0  0
   33.2128   44.0737    7.9197 H   0  0  0  0  0  0  0  0  0  0  0  0
   31.5298   43.9908    7.4048 H   0  0  0  0  0  0  0  0  0  0  0  0
   32.9936   42.8604    9.3632 H   0  0  0  0  0  0  0  0  0  0  0  0
   32.0023   43.0901   10.7963 H   0  0  0  0  0  0  0  0  0  0  0  0
   34.4162   44.7095   10.0650 H   0  0  0  0  0  0  0  0  0  0  0  0
   34.3510   43.4736   11.2984 H   0  0  0  0  0  0  0  0  0  0  0  0
   33.4219   44.9418   11.4830 H   0  0  0  0  0  0  0  0  0  0  0  0
   30.1480   43.7836   10.3322 H   0  0  0  0  0  0  0  0  0  0  0  0
   29.7858   44.7172    8.8970 H   0  0  0  0  0  0  0  0  0  0  0  0
   31.1203   42.0111    8.9300 H   0  0  0  0  0  0  0  0  0  0  0  0
   30.7608   42.9453    7.4979 H   0  0  0  0  0  0  0  0  0  0  0  0
   29.4597   42.3157    8.4796 H   0  0  0  0  0  0  0  0  0  0  0  0
  1 26  1  0  0  0  0
  2  1  2  0  0  0  0
  2 13  1  0  0  0  0
  3  2  1  0  0  0  0
  4  3  1  0  0  0  0
  5  3  1  0  0  0  0
  5 12  1  0  0  0  0
  5 38  1  1  0  0  0
  6  5  1  0  0  0  0
  7  6  1  0  0  0  0
  8  6  1  0  0  0  0
  8  9  2  0  0  0  0
  8 39  1  0  0  0  0
  9 10  1  0  0  0  0
  9 40  1  0  0  0  0
 10 12  1  0  0  0  0
 10 11  1  0  0  0  0
 12  1  1  0  0  0  0
 13 14  2  0  0  0  0
 13 18  1  0  0  0  0
 14 15  1  0  0  0  0
 14 41  1  0  0  0  0
 15 16  2  0  0  0  0
 15 42  1  0  0  0  0
 16 19  1  0  0  0  0
 17 16  1  0  0  0  0
 17 43  1  0  0  0  0
 18 17  2  0  0  0  0
 18 44  1  0  0  0  0
 19 45  1  0  0  0  0
 19 46  1  0  0  0  0
 20 19  1  0  0  0  0
 20 21  1  0  0  0  0
 21 47  1  0  0  0  0
 21 48  1  0  0  0  0
 22 21  1  0  0  0  0
 22 49  1  0  0  0  0
 22 50  1  0  0  0  0
 23 25  1  0  0  0  0
 23 24  1  0  0  0  0
 23 22  1  0  0  0  0
 23 51  1  6  0  0  0
 24 52  1  0  0  0  0
 24 53  1  0  0  0  0
 24 54  1  0  0  0  0
 25 20  1  0  0  0  0
 25 55  1  0  0  0  0
 25 56  1  0  0  0  0
 26 27  2  0  0  0  0
 27 28  1  0  0  0  0
 27 57  1  0  0  0  0
 28 58  1  0  0  0  0
 29 32  1  0  0  0  0
 29 28  2  0  0  0  0
 30 29  1  0  0  0  0
 30 59  1  0  0  0  0
 31 30  2  0  0  0  0
 31 26  1  0  0  0  0
 31 60  1  0  0  0  0
 32 33  1  0  0  0  0
 32 61  1  0  0  0  0
 32 62  1  0  0  0  0
 33 34  1  0  0  0  0
 34 35  1  0  0  0  0
 34 63  1  0  0  0  0
 34 64  1  0  0  0  0
 35 65  1  0  0  0  0
 35 66  1  0  0  0  0
 35 67  1  0  0  0  0
 36 33  1  0  0  0  0
 36 68  1  0  0  0  0
 36 69  1  0  0  0  0
 37 36  1  0  0  0  0
 37 70  1  0  0  0  0
 37 71  1  0  0  0  0
 37 72  1  0  0  0  0
M  END
>  <REMARK>
 VINA RESULT:      -7.2      2.689      8.146
  8 active torsions:
  status: ('A' for Active; 'I' for Inactive)
    1  A    between atoms: C_2  and  N_3 
    2  A    between atoms: N_3  and  C_4 
    3  A    between atoms: N_3  and  C_6 
    4  A    between atoms: C_6  and  C_7 
    5  A    between atoms: C_10  and  C_11 
    6  A    between atoms: C_12  and  C_13 
    7  A    between atoms: C_16  and  C_17 
    8  A    between atoms: C_17  and  N_18 

>  <TORSDO>
F 8

$$$$
resistance_project/docking/5319283d3047ac55/Q9UM73_WT/docked/molecule_0011_out.pdbqt
 OpenBabel09232609193D

 72 76  0  0  1  0  0  0  0  0999 V2000
   32.7890   49.9550    5.9620 C   0  0  0  0  0  0  0  0  0  0  0  0
   34.1740   49.9540    5.9570 C   0  0  0  0  0  0  0  0  0  0  0  0
   34.5660   51.1480    5.4790 N   0  0  0  0  0  0  0  0  0  0  0  0
   35.5360   51.4380    5.3590 H   0  0  0  0  0  0  0  0  0  0  0  0
   33.4920   51.9050    5.1790 C   0  0  2  0  0  0  0  0  0  0  0  0
   33.3700   53.1560    4.6800 N   0  0  0  0  0  0  0  0  0  0  0  0
   34.2080   53.6940    4.4620 H   0  0  0  0  0  0  0  0  0  0  0  0
   32.1610   53.6980    4.4670 C   0  0  0  0  0  0  0  0  0  0  0  0
   31.0540   52.9340    4.7770 C   0  0  0  0  0  0  0  0  0  0  0  0
   31.2030   51.6910    5.2730 N   0  0  0  0  0  0  0  0  0  0  0  0
   30.3720   51.1420    5.4960 H   0  0  0  0  0  0  0  0  0  0  0  0
   32.4150   51.1580    5.4820 N   0  0  0  0  0  0  0  0  0  0  0  0
   35.0860   48.8980    6.3770 C   0  0  0  0  0  0  0  0  0  0  0  0
   35.5040   47.8840    5.5380 C   0  0  0  0  0  0  0  0  0  0  0  0
   36.3820   46.9020    6.0090 C   0  0  0  0  0  0  0  0  0  0  0  0
   36.8320   46.9530    7.3240 C   0  0  0  0  0  0  0  0  0  0  0  0
   36.4220   47.9580    8.1630 C   0  0  0  0  0  0  0  0  0  0  0  0
   35.5530   48.9140    7.6740 C   0  0  0  0  0  0  0  0  0  0  0  0
   37.7670   45.9370    7.8810 C   0  0  0  0  0  0  0  0  0  0  0  0
   37.0110   44.9860    8.6550 N   0  0  0  0  0  0  0  0  0  0  0  0
   36.4020   45.5750    9.8280 C   0  0  0  0  0  0  0  0  0  0  0  0
   35.0290   44.9530    9.9610 C   0  0  0  0  0  0  0  0  0  0  0  0
   34.6810   44.4640    8.5720 C   0  0  1  0  0  0  0  0  0  0  0  0
   33.7470   45.4300    7.8610 C   0  0  0  0  0  0  0  0  0  0  0  0
   35.9920   44.3660    7.8680 C   0  0  0  0  0  0  0  0  0  0  0  0
   31.9500   48.8470    6.4070 C   0  0  0  0  0  0  0  0  0  0  0  0
   31.3460   48.8630    7.6470 C   0  0  0  0  0  0  0  0  0  0  0  0
   30.5440   47.8370    8.1090 C   0  0  0  0  0  0  0  0  0  0  0  0
   30.3270   46.7270    7.2980 C   0  0  0  0  0  0  0  0  0  0  0  0
   30.9130   46.6890    6.0690 C   0  0  0  0  0  0  0  0  0  0  0  0
   31.7150   47.7310    5.6240 C   0  0  0  0  0  0  0  0  0  0  0  0
   29.4560   45.6650    7.8560 C   0  0  0  0  0  0  0  0  0  0  0  0
   29.6760   45.4900    9.2850 N   0  0  0  0  0  0  0  0  0  0  0  0
   29.6810   44.0380    9.5250 C   0  0  0  0  0  0  0  0  0  0  0  0
   30.8190   43.3720    8.7830 C   0  0  0  0  0  0  0  0  0  0  0  0
   28.4290   45.9600    9.9100 C   0  0  0  0  0  0  0  0  0  0  0  0
   27.2710   45.8460    8.9130 C   0  0  0  0  0  0  0  0  0  0  0  0
   33.9333   52.8066    4.8086 H   0  0  0  0  0  0  0  0  0  0  0  0
   32.0624   54.6517    4.0852 H   0  0  0  0  0  0  0  0  0  0  0  0
   30.1075   53.3173    4.6279 H   0  0  0  0  0  0  0  0  0  0  0  0
   35.1684   47.8506    4.5627 H   0  0  0  0  0  0  0  0  0  0  0  0
   36.6944   46.1430    5.3834 H   0  0  0  0  0  0  0  0  0  0  0  0
   36.7557   47.9989    9.1387 H   0  0  0  0  0  0  0  0  0  0  0  0
   35.2413   49.6695    8.3041 H   0  0  0  0  0  0  0  0  0  0  0  0
   38.4890   46.4178    8.5075 H   0  0  0  0  0  0  0  0  0  0  0  0
   38.2756   45.4353    7.0844 H   0  0  0  0  0  0  0  0  0  0  0  0
   36.3170   46.6348    9.7071 H   0  0  0  0  0  0  0  0  0  0  0  0
   36.9934   45.3949   10.7014 H   0  0  0  0  0  0  0  0  0  0  0  0
   35.0520   44.1363   10.6519 H   0  0  0  0  0  0  0  0  0  0  0  0
   34.3075   45.6502   10.3328 H   0  0  0  0  0  0  0  0  0  0  0  0
   34.1626   43.5283    8.5949 H   0  0  0  0  0  0  0  0  0  0  0  0
   34.2076   46.3940    7.8031 H   0  0  0  0  0  0  0  0  0  0  0  0
   32.8294   45.5053    8.4062 H   0  0  0  0  0  0  0  0  0  0  0  0
   33.5466   45.0705    6.8733 H   0  0  0  0  0  0  0  0  0  0  0  0
   35.9246   44.8597    6.9211 H   0  0  0  0  0  0  0  0  0  0  0  0
   36.2377   43.3351    7.7201 H   0  0  0  0  0  0  0  0  0  0  0  0
   31.5004   49.6798    8.2586 H   0  0  0  0  0  0  0  0  0  0  0  0
   30.1111   47.8931    9.0442 H   0  0  0  0  0  0  0  0  0  0  0  0
   30.7581   45.8717    5.4583 H   0  0  0  0  0  0  0  0  0  0  0  0
   32.1456   47.6718    4.6880 H   0  0  0  0  0  0  0  0  0  0  0  0
   29.6682   44.7430    7.3561 H   0  0  0  0  0  0  0  0  0  0  0  0
   28.4367   45.9538    7.7063 H   0  0  0  0  0  0  0  0  0  0  0  0
   29.7928   43.8566   10.5736 H   0  0  0  0  0  0  0  0  0  0  0  0
   28.7572   43.6299    9.1715 H   0  0  0  0  0  0  0  0  0  0  0  0
   31.7506   43.7708    9.1266 H   0  0  0  0  0  0  0  0  0  0  0  0
   30.7172   43.5566    7.7340 H   0  0  0  0  0  0  0  0  0  0  0  0
   30.7940   42.3177    8.9637 H   0  0  0  0  0  0  0  0  0  0  0  0
   28.2161   45.3615   10.7710 H   0  0  0  0  0  0  0  0  0  0  0  0
   28.5444   46.9833   10.2005 H   0  0  0  0  0  0  0  0  0  0  0  0
   27.1521   44.8239    8.6198 H   0  0  0  0  0  0  0  0  0  0  0  0
   27.4832   46.4422    8.0502 H   0  0  0  0  0  0  0  0  0  0  0  0
   26.3691   46.1923    9.3728 H   0  0  0  0  0  0  0  0  0  0  0  0
  1 26  1  0  0  0  0
  2  1  2  0  0  0  0
  2 13  1  0  0  0  0
  3  2  1  0  0  0  0
  4  3  1  0  0  0  0
  5  3  1  0  0  0  0
  5 12  1  0  0  0  0
  5 38  1  6  0  0  0
  6  5  1  0  0  0  0
  7  6  1  0  0  0  0
  8  6  1  0  0  0  0
  8  9  2  0  0  0  0
  8 39  1  0  0  0  0
  9 10  1  0  0  0  0
  9 40  1  0  0  0  0
 10 12  1  0  0  0  0
 10 11  1  0  0  0  0
 12  1  1  0  0  0  0
 13 18  2  0  0  0  0
 14 15  2  0  0  0  0
 14 13  1  0  0  0  0
 14 41  1  0  0  0  0
 15 16  1  0  0  0  0
 15 42  1  0  0  0  0
 16 19  1  0  0  0  0
 16 17  2  0  0  0  0
 17 43  1  0  0  0  0
 18 17  1  0  0  0  0
 18 44  1  0  0  0  0
 19 20  1  0  0  0  0
 19 45  1  0  0  0  0
 19 46  1  0  0  0  0
 20 21  1  0  0  0  0
 21 22  1  0  0  0  0
 21 47  1  0  0  0  0
 21 48  1  0  0  0  0
 22 49  1  0  0  0  0
 22 50  1  0  0  0  0
 23 22  1  0  0  0  0
 23 51  1  1  0  0  0
 24 23  1  0  0  0  0
 24 52  1  0  0  0  0
 24 53  1  0  0  0  0
 24 54  1  0  0  0  0
 25 23  1  0  0  0  0
 25 20  1  0  0  0  0
 25 55  1  0  0  0  0
 25 56  1  0  0  0  0
 26 27  2  0  0  0  0
 27 28  1  0  0  0  0
 27 57  1  0  0  0  0
 28 58  1  0  0  0  0
 29 32  1  0  0  0  0
 29 28  2  0  0  0  0
 30 29  1  0  0  0  0
 30 59  1  0  0  0  0
 31 30  2  0  0  0  0
 31 26  1  0  0  0  0
 31 60  1  0  0  0  0
 32 33  1  0  0  0  0
 32 61  1  0  0  0  0
 32 62  1  0  0  0  0
 33 34  1  0  0  0  0
 33 36  1  0  0  0  0
 34 63  1  0  0  0  0
 34 64  1  0  0  0  0
 35 34  1  0  0  0  0
 35 65  1  0  0  0  0
 35 66  1  0  0  0  0
 35 67  1  0  0  0  0
 36 68  1  0  0  0  0
 36 69  1  0  0  0  0
 37 36  1  0  0  0  0
 37 70  1  0  0  0  0
 37 71  1  0  0  0  0
 37 72  1  0  0  0  0
M  END
>  <REMARK>
 VINA RESULT:      -7.2      2.690      6.075
  8 active torsions:
  status: ('A' for Active; 'I' for Inactive)
    1  A    between atoms: C_2  and  N_3 
    2  A    between atoms: N_3  and  C_4 
    3  A    between atoms: N_3  and  C_6 
    4  A    between atoms: C_6  and  C_7 
    5  A    between atoms: C_10  and  C_11 
    6  A    between atoms: C_12  and  C_13 
    7  A    between atoms: C_16  and  C_17 
    8  A    between atoms: C_17  and  N_18 

>  <TORSDO>
F 8

$$$$
resistance_project/docking/5319283d3047ac55/Q9UM73_WT/docked/molecule_0011_out.pdbqt
 OpenBabel09232609193D

 72 76  0  0  1  0  0  0  0  0999 V2000
   29.6120   46.5540    8.2500 C   0  0  0  0  0  0  0  0  0  0  0  0
   28.4250   47.2610    8.3530 C   0  0  0  0  0  0  0  0  0  0  0  0
   27.6210   46.5630    9.1730 N   0  0  0  0  0  0  0  0  0  0  0  0
   26.6760   46.8390    9.4380 H   0  0  0  0  0  0  0  0  0  0  0  0
   28.2440   45.4450    9.5940 C   0  0  2  0  0  0  0  0  0  0  0  0
   27.8590   44.4410   10.4140 N   0  0  0  0  0  0  0  0  0  0  0  0
   26.9290   44.4630   10.8330 H   0  0  0  0  0  0  0  0  0  0  0  0
   28.6810   43.4150   10.6830 C   0  0  0  0  0  0  0  0  0  0  0  0
   29.9300   43.4260   10.0940 C   0  0  0  0  0  0  0  0  0  0  0  0
   30.2890   44.4370    9.2810 N   0  0  0  0  0  0  0  0  0  0  0  0
   31.2170   44.4270    8.8560 H   0  0  0  0  0  0  0  0  0  0  0  0
   29.4600   45.4570    9.0190 N   0  0  0  0  0  0  0  0  0  0  0  0
   28.0590   48.5230    7.7220 C   0  0  0  0  0  0  0  0  0  0  0  0
   28.9660   49.3280    7.0610 C   0  0  0  0  0  0  0  0  0  0  0  0
   28.5440   50.5260    6.4770 C   0  0  0  0  0  0  0  0  0  0  0  0
   27.2070   50.9030    6.5640 C   0  0  0  0  0  0  0  0  0  0  0  0
   26.3010   50.1090    7.2190 C   0  0  0  0  0  0  0  0  0  0  0  0
   26.7430   48.9300    7.7880 C   0  0  0  0  0  0  0  0  0  0  0  0
   26.7000   52.1670    5.9630 C   0  0  0  0  0  0  0  0  0  0  0  0
   26.3700   51.9240    4.5820 N   0  0  0  0  0  0  0  0  0  0  0  0
   26.9390   50.6920    4.0780 C   0  0  0  0  0  0  0  0  0  0  0  0
   25.8900   50.0660    3.1840 C   0  0  0  0  0  0  0  0  0  0  0  0
   24.5750   50.6550    3.6460 C   0  0  1  0  0  0  0  0  0  0  0  0
   23.8220   49.6900    4.5490 C   0  0  0  0  0  0  0  0  0  0  0  0
   24.9560   51.8940    4.3820 C   0  0  0  0  0  0  0  0  0  0  0  0
   30.7650   46.9600    7.4530 C   0  0  0  0  0  0  0  0  0  0  0  0
   31.7640   47.7460    7.9910 C   0  0  0  0  0  0  0  0  0  0  0  0
   32.8720   48.1530    7.2740 C   0  0  0  0  0  0  0  0  0  0  0  0
   33.0020   47.7620    5.9450 C   0  0  0  0  0  0  0  0  0  0  0  0
   32.0290   46.9860    5.3910 C   0  0  0  0  0  0  0  0  0  0  0  0
   30.9220   46.5880    6.1300 C   0  0  0  0  0  0  0  0  0  0  0  0
   34.2160   48.2330    5.2360 C   0  0  0  0  0  0  0  0  0  0  0  0
   34.8310   47.1650    4.4620 N   0  0  0  0  0  0  0  0  0  0  0  0
   35.8100   46.5230    5.3530 C   0  0  0  0  0  0  0  0  0  0  0  0
   35.3950   45.1050    5.6800 C   0  0  0  0  0  0  0  0  0  0  0  0
   35.6520   47.8610    3.4580 C   0  0  0  0  0  0  0  0  0  0  0  0
   36.2980   46.8410    2.5140 C   0  0  0  0  0  0  0  0  0  0  0  0
   27.5058   44.9921   10.2224 H   0  0  0  0  0  0  0  0  0  0  0  0
   28.3905   42.6461   11.3070 H   0  0  0  0  0  0  0  0  0  0  0  0
   30.5913   42.6554   10.2780 H   0  0  0  0  0  0  0  0  0  0  0  0
   29.9564   49.0448    6.9981 H   0  0  0  0  0  0  0  0  0  0  0  0
   29.2211   51.1284    5.9834 H   0  0  0  0  0  0  0  0  0  0  0  0
   25.3092   50.3864    7.2856 H   0  0  0  0  0  0  0  0  0  0  0  0
   26.0624   48.3312    8.2812 H   0  0  0  0  0  0  0  0  0  0  0  0
   25.8269   52.4909    6.4899 H   0  0  0  0  0  0  0  0  0  0  0  0
   27.4495   52.9277    6.0295 H   0  0  0  0  0  0  0  0  0  0  0  0
   27.8270   50.8975    3.5175 H   0  0  0  0  0  0  0  0  0  0  0  0
   27.2066   50.0343    4.8785 H   0  0  0  0  0  0  0  0  0  0  0  0
   26.0733   50.3141    2.1594 H   0  0  0  0  0  0  0  0  0  0  0  0
   25.8950   48.9979    3.2477 H   0  0  0  0  0  0  0  0  0  0  0  0
   23.9160   50.8565    2.8274 H   0  0  0  0  0  0  0  0  0  0  0  0
   24.4298   49.4451    5.3949 H   0  0  0  0  0  0  0  0  0  0  0  0
   23.5921   48.7979    4.0047 H   0  0  0  0  0  0  0  0  0  0  0  0
   22.9144   50.1482    4.8826 H   0  0  0  0  0  0  0  0  0  0  0  0
   24.4628   51.9087    5.3314 H   0  0  0  0  0  0  0  0  0  0  0  0
   24.6625   52.7488    3.8093 H   0  0  0  0  0  0  0  0  0  0  0  0
   31.6790   48.0436    8.9755 H   0  0  0  0  0  0  0  0  0  0  0  0
   33.5949   48.7401    7.7186 H   0  0  0  0  0  0  0  0  0  0  0  0
   32.1156   46.6890    4.4065 H   0  0  0  0  0  0  0  0  0  0  0  0
   30.2006   46.0017    5.6819 H   0  0  0  0  0  0  0  0  0  0  0  0
   33.9453   49.0297    4.5750 H   0  0  0  0  0  0  0  0  0  0  0  0
   34.9226   48.5671    5.9668 H   0  0  0  0  0  0  0  0  0  0  0  0
   35.8794   47.0857    6.2605 H   0  0  0  0  0  0  0  0  0  0  0  0
   36.7574   46.4957    4.8564 H   0  0  0  0  0  0  0  0  0  0  0  0
   34.4479   45.1163    6.1777 H   0  0  0  0  0  0  0  0  0  0  0  0
   36.1279   44.6570    6.3181 H   0  0  0  0  0  0  0  0  0  0  0  0
   35.3159   44.5389    4.7754 H   0  0  0  0  0  0  0  0  0  0  0  0
   35.0328   48.5254    2.8923 H   0  0  0  0  0  0  0  0  0  0  0  0
   36.4197   48.4166    3.9547 H   0  0  0  0  0  0  0  0  0  0  0  0
   35.5336   46.2829    2.0149 H   0  0  0  0  0  0  0  0  0  0  0  0
   36.9158   46.1741    3.0783 H   0  0  0  0  0  0  0  0  0  0  0  0
   36.8956   47.3539    1.7897 H   0  0  0  0  0  0  0  0  0  0  0  0
  1  2  2  0  0  0  0
  1 12  1  0  0  0  0
  2  3  1  0  0  0  0
  3  4  1  0  0  0  0
  3  5  1  0  0  0  0
  5  6  1  0  0  0  0
  5 38  1  6  0  0  0
  6  8  1  0  0  0  0
  6  7  1  0  0  0  0
  8 39  1  0  0  0  0
  9  8  2  0  0  0  0
  9 40  1  0  0  0  0
 10  9  1  0  0  0  0
 11 10  1  0  0  0  0
 12 10  1  0  0  0  0
 12  5  1  0  0  0  0
 13 18  1  0  0  0  0
 13  2  1  0  0  0  0
 14 13  2  0  0  0  0
 14 41  1  0  0  0  0
 15 16  2  0  0  0  0
 15 14  1  0  0  0  0
 15 42  1  0  0  0  0
 16 17  1  0  0  0  0
 17 18  2  0  0  0  0
 17 43  1  0  0  0  0
 18 44  1  0  0  0  0
 19 16  1  0  0  0  0
 19 45  1  0  0  0  0
 19 46  1  0  0  0  0
 20 19  1  0  0  0  0
 21 20  1  0  0  0  0
 21 47  1  0  0  0  0
 21 48  1  0  0  0  0
 22 23  1  0  0  0  0
 22 21  1  0  0  0  0
 22 49  1  0  0  0  0
 22 50  1  0  0  0  0
 23 25  1  0  0  0  0
 23 24  1  0  0  0  0
 23 51  1  6  0  0  0
 24 52  1  0  0  0  0
 24 53  1  0  0  0  0
 24 54  1  0  0  0  0
 25 20  1  0  0  0  0
 25 55  1  0  0  0  0
 25 56  1  0  0  0  0
 26 27  1  0  0  0  0
 26  1  1  0  0  0  0
 27 57  1  0  0  0  0
 28 27  2  0  0  0  0
 28 58  1  0  0  0  0
 29 28  1  0  0  0  0
 30 29  2  0  0  0  0
 30 31  1  0  0  0  0
 30 59  1  0  0  0  0
 31 26  2  0  0  0  0
 31 60  1  0  0  0  0
 32 29  1  0  0  0  0
 32 61  1  0  0  0  0
 32 62  1  0  0  0  0
 33 32  1  0  0  0  0
 33 34  1  0  0  0  0
 34 35  1  0  0  0  0
 34 63  1  0  0  0  0
 34 64  1  0  0  0  0
 35 65  1  0  0  0  0
 35 66  1  0  0  0  0
 35 67  1  0  0  0  0
 36 33  1  0  0  0  0
 36 68  1  0  0  0  0
 36 69  1  0  0  0  0
 37 36  1  0  0  0  0
 37 70  1  0  0  0  0
 37 71  1  0  0  0  0
 37 72  1  0  0  0  0
M  END
>  <REMARK>
 VINA RESULT:      -7.2      2.163      7.122
  8 active torsions:
  status: ('A' for Active; 'I' for Inactive)
    1  A    between atoms: C_2  and  N_3 
    2  A    between atoms: N_3  and  C_4 
    3  A    between atoms: N_3  and  C_6 
    4  A    between atoms: C_6  and  C_7 
    5  A    between atoms: C_10  and  C_11 
    6  A    between atoms: C_12  and  C_13 
    7  A    between atoms: C_16  and  C_17 
    8  A    between atoms: C_17  and  N_18 

>  <TORSDO>
F 8

$$$$
resistance_project/docking/5319283d3047ac55/Q9UM73_WT/docked/molecule_0011_out.pdbqt
 OpenBabel09232609193D

 72 76  0  0  1  0  0  0  0  0999 V2000
   32.4880   45.5840    7.5180 C   0  0  0  0  0  0  0  0  0  0  0  0
   31.1650   45.5310    7.9230 C   0  0  0  0  0  0  0  0  0  0  0  0
   30.9810   44.3360    8.5120 N   0  0  0  0  0  0  0  0  0  0  0  0
   30.1010   44.0120    8.9120 H   0  0  0  0  0  0  0  0  0  0  0  0
   32.1290   43.6300    8.4980 C   0  0  1  0  0  0  0  0  0  0  0  0
   32.4460   42.3990    8.9590 N   0  0  0  0  0  0  0  0  0  0  0  0
   31.7310   41.8350    9.4180 H   0  0  0  0  0  0  0  0  0  0  0  0
   33.6870   41.9090    8.8210 C   0  0  0  0  0  0  0  0  0  0  0  0
   34.6230   42.7080    8.1940 C   0  0  0  0  0  0  0  0  0  0  0  0
   34.2820   43.9290    7.7430 N   0  0  0  0  0  0  0  0  0  0  0  0
   34.9870   44.5040    7.2820 H   0  0  0  0  0  0  0  0  0  0  0  0
   33.0380   44.4100    7.8860 N   0  0  0  0  0  0  0  0  0  0  0  0
   30.1240   46.5400    7.7710 C   0  0  0  0  0  0  0  0  0  0  0  0
   30.0390   47.3780    6.6760 C   0  0  0  0  0  0  0  0  0  0  0  0
   29.0120   48.3230    6.5960 C   0  0  0  0  0  0  0  0  0  0  0  0
   28.0780   48.4170    7.6230 C   0  0  0  0  0  0  0  0  0  0  0  0
   28.1570   47.5880    8.7130 C   0  0  0  0  0  0  0  0  0  0  0  0
   29.1810   46.6630    8.7690 C   0  0  0  0  0  0  0  0  0  0  0  0
   26.9640   49.4040    7.5930 C   0  0  0  0  0  0  0  0  0  0  0  0
   25.8580   48.8330    6.8690 N   0  0  0  0  0  0  0  0  0  0  0  0
   24.7750   48.4170    7.7350 C   0  0  0  0  0  0  0  0  0  0  0  0
   23.4890   48.7780    7.0230 C   0  0  0  0  0  0  0  0  0  0  0  0
   23.8690   49.8780    6.0560 C   0  0  1  0  0  0  0  0  0  0  0  0
   23.4960   51.2480    6.6000 C   0  0  0  0  0  0  0  0  0  0  0  0
   25.3450   49.7450    5.8960 C   0  0  0  0  0  0  0  0  0  0  0  0
   33.1120   46.7110    6.8320 C   0  0  0  0  0  0  0  0  0  0  0  0
   33.5170   47.8330    7.5250 C   0  0  0  0  0  0  0  0  0  0  0  0
   34.1110   48.9220    6.9170 C   0  0  0  0  0  0  0  0  0  0  0  0
   34.3180   48.9020    5.5410 C   0  0  0  0  0  0  0  0  0  0  0  0
   33.9270   47.8050    4.8350 C   0  0  0  0  0  0  0  0  0  0  0  0
   33.3310   46.7200    5.4660 C   0  0  0  0  0  0  0  0  0  0  0  0
   34.9610   50.1020    4.9550 C   0  0  0  0  0  0  0  0  0  0  0  0
   34.6580   51.3000    5.7250 N   0  0  0  0  0  0  0  0  0  0  0  0
   33.8170   52.1420    4.8610 C   0  0  0  0  0  0  0  0  0  0  0  0
   32.3520   51.8120    5.0470 C   0  0  0  0  0  0  0  0  0  0  0  0
   35.9390   52.0220    5.8030 C   0  0  0  0  0  0  0  0  0  0  0  0
   36.7240   51.5570    7.0350 C   0  0  0  0  0  0  0  0  0  0  0  0
   31.8534   42.7188    8.9866 H   0  0  0  0  0  0  0  0  0  0  0  0
   33.9333   40.9697    9.1704 H   0  0  0  0  0  0  0  0  0  0  0  0
   35.5891   42.3667    8.0708 H   0  0  0  0  0  0  0  0  0  0  0  0
   30.7341   47.3063    5.9166 H   0  0  0  0  0  0  0  0  0  0  0  0
   28.9468   48.9488    5.7780 H   0  0  0  0  0  0  0  0  0  0  0  0
   27.4652   47.6542    9.4759 H   0  0  0  0  0  0  0  0  0  0  0  0
   29.2426   46.0400    9.5894 H   0  0  0  0  0  0  0  0  0  0  0  0
   26.6595   49.6332    8.5928 H   0  0  0  0  0  0  0  0  0  0  0  0
   27.2878   50.3034    7.1123 H   0  0  0  0  0  0  0  0  0  0  0  0
   24.8343   48.9293    8.6725 H   0  0  0  0  0  0  0  0  0  0  0  0
   24.8232   47.3672    7.9361 H   0  0  0  0  0  0  0  0  0  0  0  0
   23.1013   47.9316    6.4956 H   0  0  0  0  0  0  0  0  0  0  0  0
   22.7268   49.0903    7.7059 H   0  0  0  0  0  0  0  0  0  0  0  0
   23.3515   49.7891    5.1237 H   0  0  0  0  0  0  0  0  0  0  0  0
   23.9838   51.4036    7.5396 H   0  0  0  0  0  0  0  0  0  0  0  0
   22.4359   51.3015    6.7353 H   0  0  0  0  0  0  0  0  0  0  0  0
   23.8058   52.0030    5.9080 H   0  0  0  0  0  0  0  0  0  0  0  0
   25.8043   50.7021    6.0296 H   0  0  0  0  0  0  0  0  0  0  0  0
   25.5617   49.3742    4.9160 H   0  0  0  0  0  0  0  0  0  0  0  0
   33.3692   47.8601    8.5460 H   0  0  0  0  0  0  0  0  0  0  0  0
   34.3978   49.7404    7.4764 H   0  0  0  0  0  0  0  0  0  0  0  0
   34.0759   47.7792    3.8141 H   0  0  0  0  0  0  0  0  0  0  0  0
   33.0455   45.9032    4.9035 H   0  0  0  0  0  0  0  0  0  0  0  0
   34.6058   50.2329    3.9542 H   0  0  0  0  0  0  0  0  0  0  0  0
   36.0207   49.9545    4.9671 H   0  0  0  0  0  0  0  0  0  0  0  0
   33.9788   53.1702    5.1091 H   0  0  0  0  0  0  0  0  0  0  0  0
   34.0823   51.9577    3.8409 H   0  0  0  0  0  0  0  0  0  0  0  0
   32.0722   51.9919    6.0640 H   0  0  0  0  0  0  0  0  0  0  0  0
   32.1852   50.7825    4.8079 H   0  0  0  0  0  0  0  0  0  0  0  0
   31.7627   52.4283    4.4006 H   0  0  0  0  0  0  0  0  0  0  0  0
   35.7505   53.0726    5.8778 H   0  0  0  0  0  0  0  0  0  0  0  0
   36.5122   51.8200    4.9223 H   0  0  0  0  0  0  0  0  0  0  0  0
   36.1537   51.7575    7.9179 H   0  0  0  0  0  0  0  0  0  0  0  0
   37.6545   52.0829    7.0844 H   0  0  0  0  0  0  0  0  0  0  0  0
   36.9117   50.5061    6.9626 H   0  0  0  0  0  0  0  0  0  0  0  0
  1 12  1  0  0  0  0
  1  2  2  0  0  0  0
  2  3  1  0  0  0  0
  3  4  1  0  0  0  0
  5  3  1  0  0  0  0
  5  6  1  0  0  0  0
  5 38  1  1  0  0  0
  6  7  1  0  0  0  0
  8  6  1  0  0  0  0
  8 39  1  0  0  0  0
  9  8  2  0  0  0  0
  9 40  1  0  0  0  0
 10 12  1  0  0  0  0
 10  9  1  0  0  0  0
 11 10  1  0  0  0  0
 12  5  1  0  0  0  0
 13  2  1  0  0  0  0
 13 18  2  0  0  0  0
 14 13  1  0  0  0  0
 14 41  1  0  0  0  0
 15 14  2  0  0  0  0
 15 16  1  0  0  0  0
 15 42  1  0  0  0  0
 16 17  2  0  0  0  0
 17 18  1  0  0  0  0
 17 43  1  0  0  0  0
 18 44  1  0  0  0  0
 19 16  1  0  0  0  0
 19 45  1  0  0  0  0
 19 46  1  0  0  0  0
 20 19  1  0  0  0  0
 20 21  1  0  0  0  0
 21 47  1  0  0  0  0
 21 48  1  0  0  0  0
 22 21  1  0  0  0  0
 22 49  1  0  0  0  0
 22 50  1  0  0  0  0
 23 24  1  0  0  0  0
 23 22  1  0  0  0  0
 23 51  1  6  0  0  0
 24 52  1  0  0  0  0
 24 53  1  0  0  0  0
 24 54  1  0  0  0  0
 25 23  1  0  0  0  0
 25 20  1  0  0  0  0
 25 55  1  0  0  0  0
 25 56  1  0  0  0  0
 26  1  1  0  0  0  0
 26 27  2  0  0  0  0
 27 57  1  0  0  0  0
 28 27  1  0  0  0  0
 28 58  1  0  0  0  0
 29 28  2  0  0  0  0
 30 31  2  0  0  0  0
 30 29  1  0  0  0  0
 30 59  1  0  0  0  0
 31 26  1  0  0  0  0
 31 60  1  0  0  0  0
 32 29  1  0  0  0  0
 32 33  1  0  0  0  0
 32 61  1  0  0  0  0
 32 62  1  0  0  0  0
 33 36  1  0  0  0  0
 34 35  1  0  0  0  0
 34 33  1  0  0  0  0
 34 63  1  0  0  0  0
 34 64  1  0  0  0  0
 35 65  1  0  0  0  0
 35 66  1  0  0  0  0
 35 67  1  0  0  0  0
 36 37  1  0  0  0  0
 36 68  1  0  0  0  0
 36 69  1  0  0  0  0
 37 70  1  0  0  0  0
 37 71  1  0  0  0  0
 37 72  1  0  0  0  0
M  END
>  <REMARK>
 VINA RESULT:      -7.1      2.265      7.400
  8 active torsions:
  status: ('A' for Active; 'I' for Inactive)
    1  A    between atoms: C_2  and  N_3 
    2  A    between atoms: N_3  and  C_4 
    3  A    between atoms: N_3  and  C_6 
    4  A    between atoms: C_6  and  C_7 
    5  A    between atoms: C_10  and  C_11 
    6  A    between atoms: C_12  and  C_13 
    7  A    between atoms: C_16  and  C_17 
    8  A    between atoms: C_17  and  N_18 

>  <TORSDO>
F 8

$$$$
