resistance_project/docking/5319283d3047ac55/Q9UM73_WT/docked/molecule_0001_out.pdbqt
 OpenBabel09232609183D

 56 58  0  0  0  0  0  0  0  0999 V2000
   28.2350   47.1420    8.3140 C   0  0  0  0  0  0  0  0  0  0  0  0
   28.3230   46.3430    9.4550 C   0  0  0  0  0  0  0  0  0  0  0  0
   29.4140   45.5370    9.7100 C   0  0  0  0  0  0  0  0  0  0  0  0
   30.4310   45.5670    8.7560 C   0  0  0  0  0  0  0  0  0  0  0  0
   30.3150   46.3780    7.6230 C   0  0  0  0  0  0  0  0  0  0  0  0
   29.2290   47.1590    7.4010 N   0  0  0  0  0  0  0  0  0  0  0  0
   29.1660   47.7440    6.5670 H   0  0  0  0  0  0  0  0  0  0  0  0
   27.0540   47.9240    8.1790 N   0  0  0  0  0  0  0  0  0  0  0  0
   27.0730   49.1830    7.5630 C   0  0  0  0  0  0  0  0  0  0  0  0
   25.8390   49.9120    7.5100 N   0  0  0  0  0  0  0  0  0  0  0  0
   28.1460   49.6320    7.0860 O   0  0  0  0  0  0  0  0  0  0  0  0
   24.9890   49.5220    7.9160 H   0  0  0  0  0  0  0  0  0  0  0  0
   26.1720   47.5590    8.5370 H   0  0  0  0  0  0  0  0  0  0  0  0
   25.8170   51.1900    6.8820 C   0  0  0  0  0  0  0  0  0  0  0  0
   25.1120   51.4510    5.7250 C   0  0  0  0  0  0  0  0  0  0  0  0
   25.0910   52.6920    5.1160 C   0  0  0  0  0  0  0  0  0  0  0  0
   25.7940   53.7340    5.6640 C   0  0  0  0  0  0  0  0  0  0  0  0
   26.5080   53.4980    6.8220 C   0  0  0  0  0  0  0  0  0  0  0  0
   26.5250   52.2620    7.4250 C   0  0  0  0  0  0  0  0  0  0  0  0
   27.2490   54.6190    7.3900 C   0  0  0  0  0  0  0  0  0  0  0  0
   28.1650   54.4590    8.4710 N   0  0  0  0  0  0  0  0  0  0  0  0
   28.9360   55.6400    8.8540 C   0  0  0  0  0  0  0  0  0  0  0  0
   28.2770   53.5650    8.9500 H   0  0  0  0  0  0  0  0  0  0  0  0
   27.0790   55.7720    6.9120 O   0  0  0  0  0  0  0  0  0  0  0  0
   31.5820   44.7320    9.0010 C   0  0  0  0  0  0  0  0  0  0  0  0
   31.4550   43.3700    8.7900 C   0  0  0  0  0  0  0  0  0  0  0  0
   30.1580   42.8110    8.3240 C   0  0  0  0  0  0  0  0  0  0  0  0
   32.5360   42.5130    9.0100 C   0  0  0  0  0  0  0  0  0  0  0  0
   33.7670   43.0110    9.4470 C   0  0  0  0  0  0  0  0  0  0  0  0
   33.8900   44.3700    9.6580 C   0  0  0  0  0  0  0  0  0  0  0  0
   32.8060   45.2020    9.4330 C   0  0  0  0  0  0  0  0  0  0  0  0
   35.1050   44.9720   10.1040 N   0  0  0  0  0  0  0  0  0  0  0  0
   36.3120   44.9540    9.3030 C   0  0  0  0  0  0  0  0  0  0  0  0
   35.0960   45.6150   11.4070 C   0  0  0  0  0  0  0  0  0  0  0  0
   27.5444   46.3553   10.1323 H   0  0  0  0  0  0  0  0  0  0  0  0
   29.8339   45.8405   10.6462 H   0  0  0  0  0  0  0  0  0  0  0  0
   31.0818   46.3823    6.9324 H   0  0  0  0  0  0  0  0  0  0  0  0
   24.5745   50.6829    5.2935 H   0  0  0  0  0  0  0  0  0  0  0  0
   24.5472   52.8339    4.2505 H   0  0  0  0  0  0  0  0  0  0  0  0
   25.7896   54.6674    5.2238 H   0  0  0  0  0  0  0  0  0  0  0  0
   27.0692   52.1259    8.2912 H   0  0  0  0  0  0  0  0  0  0  0  0
   28.6638   56.4626    8.2263 H   0  0  0  0  0  0  0  0  0  0  0  0
   29.9804   55.4360    8.7417 H   0  0  0  0  0  0  0  0  0  0  0  0
   28.7283   55.8860    9.8744 H   0  0  0  0  0  0  0  0  0  0  0  0
   29.4487   43.6038    8.2090 H   0  0  0  0  0  0  0  0  0  0  0  0
   29.7935   42.1079    9.0435 H   0  0  0  0  0  0  0  0  0  0  0  0
   30.2987   42.3191    7.3842 H   0  0  0  0  0  0  0  0  0  0  0  0
   32.4245   41.4999    8.8480 H   0  0  0  0  0  0  0  0  0  0  0  0
   34.5655   42.3774    9.6082 H   0  0  0  0  0  0  0  0  0  0  0  0
   32.9178   46.2151    9.5949 H   0  0  0  0  0  0  0  0  0  0  0  0
   36.1227   44.4392    8.3843 H   0  0  0  0  0  0  0  0  0  0  0  0
   37.0890   44.4512    9.8400 H   0  0  0  0  0  0  0  0  0  0  0  0
   36.6158   45.9583    9.0931 H   0  0  0  0  0  0  0  0  0  0  0  0
   36.0650   46.0202   11.6115 H   0  0  0  0  0  0  0  0  0  0  0  0
   34.8445   44.8956   12.1580 H   0  0  0  0  0  0  0  0  0  0  0  0
   34.3719   46.4028   11.4110 H   0  0  0  0  0  0  0  0  0  0  0  0
  1  2  2  0  0  0  0
  2  3  1  0  0  0  0
  2 35  1  0  0  0  0
  3 36  1  0  0  0  0
  4 25  1  0  0  0  0
  4  3  1  0  0  0  0
  5  4  2  0  0  0  0
  5 37  1  0  0  0  0
  6  5  1  0  0  0  0
  6  1  1  0  0  0  0
  7  6  1  0  0  0  0
  8  1  1  0  0  0  0
  8 13  1  0  0  0  0
  9  8  1  0  0  0  0
 10  9  1  0  0  0  0
 10 12  1  0  0  0  0
 11  9  2  0  0  0  0
 14 19  1  0  0  0  0
 14 10  1  0  0  0  0
 15 14  2  0  0  0  0
 15 38  1  0  0  0  0
 16 17  2  0  0  0  0
 16 15  1  0  0  0  0
 16 39  1  0  0  0  0
 17 18  1  0  0  0  0
 17 40  1  0  0  0  0
 18 20  1  0  0  0  0
 18 19  2  0  0  0  0
 19 41  1  0  0  0  0
 20 21  1  0  0  0  0
 21 22  1  0  0  0  0
 21 23  1  0  0  0  0
 22 42  1  0  0  0  0
 22 43  1  0  0  0  0
 22 44  1  0  0  0  0
 24 20  2  0  0  0  0
 25 31  1  0  0  0  0
 26 25  2  0  0  0  0
 26 28  1  0  0  0  0
 27 26  1  0  0  0  0
 27 45  1  0  0  0  0
 27 46  1  0  0  0  0
 27 47  1  0  0  0  0
 28 29  2  0  0  0  0
 28 48  1  0  0  0  0
 29 30  1  0  0  0  0
 29 49  1  0  0  0  0
 30 32  1  0  0  0  0
 31 30  2  0  0  0  0
 31 50  1  0  0  0  0
 32 34  1  0  0  0  0
 33 32  1  0  0  0  0
 33 51  1  0  0  0  0
 33 52  1  0  0  0  0
 33 53  1  0  0  0  0
 34 54  1  0  0  0  0
 34 55  1  0  0  0  0
 34 56  1  0  0  0  0
M  END
>  <MODEL>
1

>  <REMARK>
 VINA RESULT:      -8.3      0.000      0.000
  5 active torsions:
  status: ('A' for Active; 'I' for Inactive)
       I    between atoms: N_2  and  C_4 
    1  A    between atoms: C_4  and  C_6 
    2  A    between atoms: C_10  and  N_11 
       I    between atoms: N_11  and  C_13 
       I    between atoms: C_13  and  N_15 
    3  A    between atoms: N_15  and  C_17 
    4  A    between atoms: C_20  and  C_21 
    5  A    between atoms: C_26  and  N_27 

>  <TORSDO>
F 5

$$$$
resistance_project/docking/5319283d3047ac55/Q9UM73_WT/docked/molecule_0001_out.pdbqt
 OpenBabel09232609183D

 56 58  0  0  0  0  0  0  0  0999 V2000
   30.5730   49.9460    6.6700 C   0  0  0  0  0  0  0  0  0  0  0  0
   31.4920   49.5450    7.6400 C   0  0  0  0  0  0  0  0  0  0  0  0
   31.5340   48.2540    8.1290 C   0  0  0  0  0  0  0  0  0  0  0  0
   30.6000   47.3690    7.5940 C   0  0  0  0  0  0  0  0  0  0  0  0
   29.6910   47.7990    6.6230 C   0  0  0  0  0  0  0  0  0  0  0  0
   29.6740   49.0740    6.1630 N   0  0  0  0  0  0  0  0  0  0  0  0
   29.0020   49.3670    5.4530 H   0  0  0  0  0  0  0  0  0  0  0  0
   30.6420   51.3060    6.2560 N   0  0  0  0  0  0  0  0  0  0  0  0
   29.5030   52.1230    6.2250 C   0  0  0  0  0  0  0  0  0  0  0  0
   29.6660   53.4680    5.7550 N   0  0  0  0  0  0  0  0  0  0  0  0
   28.3930   51.6660    6.6000 O   0  0  0  0  0  0  0  0  0  0  0  0
   30.5800   53.8020    5.4500 H   0  0  0  0  0  0  0  0  0  0  0  0
   31.5410   51.6950    5.9760 H   0  0  0  0  0  0  0  0  0  0  0  0
   28.5340   54.3310    5.7200 C   0  0  0  0  0  0  0  0  0  0  0  0
   27.9050   54.7040    4.5500 C   0  0  0  0  0  0  0  0  0  0  0  0
   26.8060   55.5410    4.5160 C   0  0  0  0  0  0  0  0  0  0  0  0
   26.2920   56.0420    5.6850 C   0  0  0  0  0  0  0  0  0  0  0  0
   26.9050   55.6840    6.8690 C   0  0  0  0  0  0  0  0  0  0  0  0
   27.9980   54.8500    6.8980 C   0  0  0  0  0  0  0  0  0  0  0  0
   26.3440   56.2270    8.1020 C   0  0  0  0  0  0  0  0  0  0  0  0
   26.6780   55.7060    9.3860 N   0  0  0  0  0  0  0  0  0  0  0  0
   26.1460   56.4260   10.5420 C   0  0  0  0  0  0  0  0  0  0  0  0
   27.2580   54.8730    9.4930 H   0  0  0  0  0  0  0  0  0  0  0  0
   25.5360   57.1910    8.0360 O   0  0  0  0  0  0  0  0  0  0  0  0
   30.6240   46.0130    8.0910 C   0  0  0  0  0  0  0  0  0  0  0  0
   29.6000   45.6080    8.9280 C   0  0  0  0  0  0  0  0  0  0  0  0
   28.5180   46.5630    9.2900 C   0  0  0  0  0  0  0  0  0  0  0  0
   29.5720   44.3080    9.4390 C   0  0  0  0  0  0  0  0  0  0  0  0
   30.5740   43.3900    9.1150 C   0  0  0  0  0  0  0  0  0  0  0  0
   31.5960   43.7980    8.2800 C   0  0  0  0  0  0  0  0  0  0  0  0
   31.6050   45.0910    7.7850 C   0  0  0  0  0  0  0  0  0  0  0  0
   32.6640   42.9340    7.8930 N   0  0  0  0  0  0  0  0  0  0  0  0
   34.0170   43.4180    7.7050 C   0  0  0  0  0  0  0  0  0  0  0  0
   32.3500   41.5290    7.6900 C   0  0  0  0  0  0  0  0  0  0  0  0
   32.1643   50.2376    8.0051 H   0  0  0  0  0  0  0  0  0  0  0  0
   32.5091   47.8603    7.9314 H   0  0  0  0  0  0  0  0  0  0  0  0
   29.0098   47.1229    6.2435 H   0  0  0  0  0  0  0  0  0  0  0  0
   28.2731   54.3403    3.6571 H   0  0  0  0  0  0  0  0  0  0  0  0
   26.3727   55.7887    3.6127 H   0  0  0  0  0  0  0  0  0  0  0  0
   25.4715   56.6679    5.6795 H   0  0  0  0  0  0  0  0  0  0  0  0
   28.4274   54.6049    7.8039 H   0  0  0  0  0  0  0  0  0  0  0  0
   25.5692   57.2625   10.2067 H   0  0  0  0  0  0  0  0  0  0  0  0
   26.9555   56.7718   11.1503 H   0  0  0  0  0  0  0  0  0  0  0  0
   25.5240   55.7706   11.1151 H   0  0  0  0  0  0  0  0  0  0  0  0
   28.6983   47.5037    8.8132 H   0  0  0  0  0  0  0  0  0  0  0  0
   28.5021   46.6983   10.3513 H   0  0  0  0  0  0  0  0  0  0  0  0
   27.5755   46.1737    8.9659 H   0  0  0  0  0  0  0  0  0  0  0  0
   28.8016   44.0223   10.0635 H   0  0  0  0  0  0  0  0  0  0  0  0
   30.5512   42.4291    9.4908 H   0  0  0  0  0  0  0  0  0  0  0  0
   32.3763   45.3772    7.1620 H   0  0  0  0  0  0  0  0  0  0  0  0
   34.6501   42.6046    7.4179 H   0  0  0  0  0  0  0  0  0  0  0  0
   34.3743   43.8424    8.6199 H   0  0  0  0  0  0  0  0  0  0  0  0
   34.0255   44.1644    6.9384 H   0  0  0  0  0  0  0  0  0  0  0  0
   33.2371   41.0028    7.4051 H   0  0  0  0  0  0  0  0  0  0  0  0
   31.6161   41.4356    6.9169 H   0  0  0  0  0  0  0  0  0  0  0  0
   31.9657   41.1145    8.5985 H   0  0  0  0  0  0  0  0  0  0  0  0
  1  2  2  0  0  0  0
  2  3  1  0  0  0  0
  2 35  1  0  0  0  0
  3 36  1  0  0  0  0
  4 25  1  0  0  0  0
  4  3  1  0  0  0  0
  5  4  2  0  0  0  0
  5 37  1  0  0  0  0
  6  5  1  0  0  0  0
  6  1  1  0  0  0  0
  7  6  1  0  0  0  0
  8  1  1  0  0  0  0
  9  8  1  0  0  0  0
  9 11  2  0  0  0  0
 10  9  1  0  0  0  0
 12 10  1  0  0  0  0
 13  8  1  0  0  0  0
 14 10  1  0  0  0  0
 14 19  2  0  0  0  0
 15 14  1  0  0  0  0
 15 38  1  0  0  0  0
 16 15  2  0  0  0  0
 16 17  1  0  0  0  0
 16 39  1  0  0  0  0
 17 18  2  0  0  0  0
 17 40  1  0  0  0  0
 18 19  1  0  0  0  0
 18 20  1  0  0  0  0
 19 41  1  0  0  0  0
 20 21  1  0  0  0  0
 21 23  1  0  0  0  0
 21 22  1  0  0  0  0
 22 42  1  0  0  0  0
 22 43  1  0  0  0  0
 22 44  1  0  0  0  0
 24 20  2  0  0  0  0
 25 26  1  0  0  0  0
 26 27  1  0  0  0  0
 26 28  2  0  0  0  0
 27 45  1  0  0  0  0
 27 46  1  0  0  0  0
 27 47  1  0  0  0  0
 28 48  1  0  0  0  0
 29 28  1  0  0  0  0
 29 49  1  0  0  0  0
 30 29  2  0  0  0  0
 31 25  2  0  0  0  0
 31 30  1  0  0  0  0
 31 50  1  0  0  0  0
 32 30  1  0  0  0  0
 33 32  1  0  0  0  0
 33 51  1  0  0  0  0
 33 52  1  0  0  0  0
 33 53  1  0  0  0  0
 34 32  1  0  0  0  0
 34 54  1  0  0  0  0
 34 55  1  0  0  0  0
 34 56  1  0  0  0  0
M  END
>  <REMARK>
 VINA RESULT:      -7.9      2.558      3.505
  5 active torsions:
  status: ('A' for Active; 'I' for Inactive)
       I    between atoms: N_2  and  C_4 
    1  A    between atoms: C_4  and  C_6 
    2  A    between atoms: C_10  and  N_11 
       I    between atoms: N_11  and  C_13 
       I    between atoms: C_13  and  N_15 
    3  A    between atoms: N_15  and  C_17 
    4  A    between atoms: C_20  and  C_21 
    5  A    between atoms: C_26  and  N_27 

>  <TORSDO>
F 5

$$$$
resistance_project/docking/5319283d3047ac55/Q9UM73_WT/docked/molecule_0001_out.pdbqt
 OpenBabel09232609183D

 56 58  0  0  0  0  0  0  0  0999 V2000
   28.1300   46.9260    8.3800 C   0  0  0  0  0  0  0  0  0  0  0  0
   28.2080   46.0560    9.4680 C   0  0  0  0  0  0  0  0  0  0  0  0
   29.3290   45.2920    9.7240 C   0  0  0  0  0  0  0  0  0  0  0  0
   30.3860   45.4410    8.8280 C   0  0  0  0  0  0  0  0  0  0  0  0
   30.2800   46.3220    7.7470 C   0  0  0  0  0  0  0  0  0  0  0  0
   29.1640   47.0580    7.5210 N   0  0  0  0  0  0  0  0  0  0  0  0
   29.1090   47.6950    6.7270 H   0  0  0  0  0  0  0  0  0  0  0  0
   26.9150   47.6530    8.2360 N   0  0  0  0  0  0  0  0  0  0  0  0
   26.8180   48.7620    7.3840 C   0  0  0  0  0  0  0  0  0  0  0  0
   25.5620   49.4530    7.3370 N   0  0  0  0  0  0  0  0  0  0  0  0
   27.8120   49.1150    6.7000 O   0  0  0  0  0  0  0  0  0  0  0  0
   24.7800   49.1440    7.9140 H   0  0  0  0  0  0  0  0  0  0  0  0
   26.0950   47.3590    8.7650 H   0  0  0  0  0  0  0  0  0  0  0  0
   25.4230   50.5770    6.4750 C   0  0  0  0  0  0  0  0  0  0  0  0
   25.6310   51.8770    6.8890 C   0  0  0  0  0  0  0  0  0  0  0  0
   25.4960   52.9680    6.0510 C   0  0  0  0  0  0  0  0  0  0  0  0
   25.1400   52.7830    4.7400 C   0  0  0  0  0  0  0  0  0  0  0  0
   24.9260   51.4910    4.3010 C   0  0  0  0  0  0  0  0  0  0  0  0
   25.0620   50.4080    5.1380 C   0  0  0  0  0  0  0  0  0  0  0  0
   24.5480   51.3150    2.9030 C   0  0  0  0  0  0  0  0  0  0  0  0
   23.6210   52.1780    2.2480 N   0  0  0  0  0  0  0  0  0  0  0  0
   23.4320   51.9660    0.8140 C   0  0  0  0  0  0  0  0  0  0  0  0
   23.1170   52.9060    2.7540 H   0  0  0  0  0  0  0  0  0  0  0  0
   25.0560   50.3680    2.2460 O   0  0  0  0  0  0  0  0  0  0  0  0
   31.5700   44.6530    9.0760 C   0  0  0  0  0  0  0  0  0  0  0  0
   31.5120   43.2940    8.8180 C   0  0  0  0  0  0  0  0  0  0  0  0
   30.2540   42.6910    8.3020 C   0  0  0  0  0  0  0  0  0  0  0  0
   32.6270   42.4810    9.0390 C   0  0  0  0  0  0  0  0  0  0  0  0
   33.8220   43.0200    9.5230 C   0  0  0  0  0  0  0  0  0  0  0  0
   33.8760   44.3770    9.7790 C   0  0  0  0  0  0  0  0  0  0  0  0
   32.7590   45.1640    9.5540 C   0  0  0  0  0  0  0  0  0  0  0  0
   35.0500   45.0190   10.2750 N   0  0  0  0  0  0  0  0  0  0  0  0
   35.0870   45.6590   11.5750 C   0  0  0  0  0  0  0  0  0  0  0  0
   36.2280   45.0120    9.4240 C   0  0  0  0  0  0  0  0  0  0  0  0
   27.3988   45.9809   10.1041 H   0  0  0  0  0  0  0  0  0  0  0  0
   29.6866   45.5513   10.6986 H   0  0  0  0  0  0  0  0  0  0  0  0
   31.0782   46.4150    7.0995 H   0  0  0  0  0  0  0  0  0  0  0  0
   25.9003   52.0425    7.8714 H   0  0  0  0  0  0  0  0  0  0  0  0
   25.6629   53.9204    6.4117 H   0  0  0  0  0  0  0  0  0  0  0  0
   25.0350   53.5856    4.0999 H   0  0  0  0  0  0  0  0  0  0  0  0
   24.8948   49.4577    4.7721 H   0  0  0  0  0  0  0  0  0  0  0  0
   22.7179   52.6699    0.4405 H   0  0  0  0  0  0  0  0  0  0  0  0
   23.0750   50.9717    0.6445 H   0  0  0  0  0  0  0  0  0  0  0  0
   24.3647   52.1013    0.3075 H   0  0  0  0  0  0  0  0  0  0  0  0
   30.3936   41.6394    8.1625 H   0  0  0  0  0  0  0  0  0  0  0  0
   29.9987   43.1441    7.3669 H   0  0  0  0  0  0  0  0  0  0  0  0
   29.4648   42.8558    9.0055 H   0  0  0  0  0  0  0  0  0  0  0  0
   32.5671   41.4697    8.8423 H   0  0  0  0  0  0  0  0  0  0  0  0
   34.6449   42.4188    9.6855 H   0  0  0  0  0  0  0  0  0  0  0  0
   32.8185   46.1750    9.7522 H   0  0  0  0  0  0  0  0  0  0  0  0
   36.0596   46.0728   11.7413 H   0  0  0  0  0  0  0  0  0  0  0  0
   34.8722   44.9365   12.3345 H   0  0  0  0  0  0  0  0  0  0  0  0
   34.3565   46.4401   11.6089 H   0  0  0  0  0  0  0  0  0  0  0  0
   36.0067   44.4965    8.5129 H   0  0  0  0  0  0  0  0  0  0  0  0
   37.0299   44.5153    9.9291 H   0  0  0  0  0  0  0  0  0  0  0  0
   36.5147   46.0190    9.2035 H   0  0  0  0  0  0  0  0  0  0  0  0
  1  2  2  0  0  0  0
  2  3  1  0  0  0  0
  2 35  1  0  0  0  0
  3 36  1  0  0  0  0
  4 25  1  0  0  0  0
  4  3  1  0  0  0  0
  5  4  2  0  0  0  0
  5 37  1  0  0  0  0
  6  5  1  0  0  0  0
  6  1  1  0  0  0  0
  7  6  1  0  0  0  0
  8  1  1  0  0  0  0
  8 13  1  0  0  0  0
  9  8  1  0  0  0  0
 10  9  1  0  0  0  0
 10 12  1  0  0  0  0
 11  9  2  0  0  0  0
 14 15  1  0  0  0  0
 14 10  1  0  0  0  0
 15 38  1  0  0  0  0
 16 15  2  0  0  0  0
 16 39  1  0  0  0  0
 17 16  1  0  0  0  0
 17 40  1  0  0  0  0
 18 17  2  0  0  0  0
 18 19  1  0  0  0  0
 19 14  2  0  0  0  0
 19 41  1  0  0  0  0
 20 18  1  0  0  0  0
 21 23  1  0  0  0  0
 21 20  1  0  0  0  0
 22 21  1  0  0  0  0
 22 42  1  0  0  0  0
 22 43  1  0  0  0  0
 22 44  1  0  0  0  0
 24 20  2  0  0  0  0
 25 31  2  0  0  0  0
 26 28  2  0  0  0  0
 26 25  1  0  0  0  0
 27 26  1  0  0  0  0
 27 45  1  0  0  0  0
 27 46  1  0  0  0  0
 27 47  1  0  0  0  0
 28 29  1  0  0  0  0
 28 48  1  0  0  0  0
 29 30  2  0  0  0  0
 29 49  1  0  0  0  0
 30 32  1  0  0  0  0
 31 30  1  0  0  0  0
 31 50  1  0  0  0  0
 32 33  1  0  0  0  0
 33 51  1  0  0  0  0
 33 52  1  0  0  0  0
 33 53  1  0  0  0  0
 34 32  1  0  0  0  0
 34 54  1  0  0  0  0
 34 55  1  0  0  0  0
 34 56  1  0  0  0  0
M  END
>  <REMARK>
 VINA RESULT:      -7.7      2.001      3.216
  5 active torsions:
  status: ('A' for Active; 'I' for Inactive)
       I    between atoms: N_2  and  C_4 
    1  A    between atoms: C_4  and  C_6 
    2  A    between atoms: C_10  and  N_11 
       I    between atoms: N_11  and  C_13 
       I    between atoms: C_13  and  N_15 
    3  A    between atoms: N_15  and  C_17 
    4  A    between atoms: C_20  and  C_21 
    5  A    between atoms: C_26  and  N_27 

>  <TORSDO>
F 5

$$$$
resistance_project/docking/5319283d3047ac55/Q9UM73_WT/docked/molecule_0001_out.pdbqt
 OpenBabel09232609183D

 56 58  0  0  0  0  0  0  0  0999 V2000
   27.7310   49.6740    6.2710 C   0  0  0  0  0  0  0  0  0  0  0  0
   26.8520   50.1040    5.2760 C   0  0  0  0  0  0  0  0  0  0  0  0
   25.4870   50.1670    5.4740 C   0  0  0  0  0  0  0  0  0  0  0  0
   25.0340   49.7750    6.7320 C   0  0  0  0  0  0  0  0  0  0  0  0
   25.9390   49.3480    7.7100 C   0  0  0  0  0  0  0  0  0  0  0  0
   27.2740   49.2970    7.4850 N   0  0  0  0  0  0  0  0  0  0  0  0
   27.9170   48.9840    8.2130 H   0  0  0  0  0  0  0  0  0  0  0  0
   29.1130   49.6590    5.9310 N   0  0  0  0  0  0  0  0  0  0  0  0
   29.9600   48.6220    6.3450 C   0  0  0  0  0  0  0  0  0  0  0  0
   31.3460   48.7160    5.9870 N   0  0  0  0  0  0  0  0  0  0  0  0
   29.4950   47.6580    7.0050 O   0  0  0  0  0  0  0  0  0  0  0  0
   31.6900   49.5180    5.4590 H   0  0  0  0  0  0  0  0  0  0  0  0
   29.4950   50.4210    5.3730 H   0  0  0  0  0  0  0  0  0  0  0  0
   32.2340   47.6760    6.3800 C   0  0  0  0  0  0  0  0  0  0  0  0
   32.7330   46.7360    5.5000 C   0  0  0  0  0  0  0  0  0  0  0  0
   33.5960   45.7260    5.8830 C   0  0  0  0  0  0  0  0  0  0  0  0
   33.9940   45.6270    7.1910 C   0  0  0  0  0  0  0  0  0  0  0  0
   33.5090   46.5540    8.0900 C   0  0  0  0  0  0  0  0  0  0  0  0
   32.6500   47.5580    7.7050 C   0  0  0  0  0  0  0  0  0  0  0  0
   33.9440   46.4320    9.4780 C   0  0  0  0  0  0  0  0  0  0  0  0
   33.8500   45.2070   10.2010 N   0  0  0  0  0  0  0  0  0  0  0  0
   34.4410   45.1910   11.5380 C   0  0  0  0  0  0  0  0  0  0  0  0
   33.3940   44.3840    9.8060 H   0  0  0  0  0  0  0  0  0  0  0  0
   34.4210   47.4400   10.0620 O   0  0  0  0  0  0  0  0  0  0  0  0
   23.6100   49.8320    6.9630 C   0  0  0  0  0  0  0  0  0  0  0  0
   22.8690   48.6830    6.7480 C   0  0  0  0  0  0  0  0  0  0  0  0
   23.5470   47.4400    6.2920 C   0  0  0  0  0  0  0  0  0  0  0  0
   21.4880   48.6790    6.9540 C   0  0  0  0  0  0  0  0  0  0  0  0
   20.8250   49.8330    7.3820 C   0  0  0  0  0  0  0  0  0  0  0  0
   21.5670   50.9780    7.5960 C   0  0  0  0  0  0  0  0  0  0  0  0
   22.9350   50.9600    7.3850 C   0  0  0  0  0  0  0  0  0  0  0  0
   20.9800   52.2040    8.0320 N   0  0  0  0  0  0  0  0  0  0  0  0
   20.0200   52.2540    9.1160 C   0  0  0  0  0  0  0  0  0  0  0  0
   21.3810   53.4210    7.3460 C   0  0  0  0  0  0  0  0  0  0  0  0
   27.2357   50.3848    4.3600 H   0  0  0  0  0  0  0  0  0  0  0  0
   25.0211   49.5354    4.7467 H   0  0  0  0  0  0  0  0  0  0  0  0
   25.5775   49.0624    8.6335 H   0  0  0  0  0  0  0  0  0  0  0  0
   32.4482   46.7900    4.5095 H   0  0  0  0  0  0  0  0  0  0  0  0
   33.9400   45.0478    5.1853 H   0  0  0  0  0  0  0  0  0  0  0  0
   34.6382   44.8801    7.4945 H   0  0  0  0  0  0  0  0  0  0  0  0
   32.3091   48.2330    8.4073 H   0  0  0  0  0  0  0  0  0  0  0  0
   34.8631   46.1505   11.7529 H   0  0  0  0  0  0  0  0  0  0  0  0
   35.2082   44.4464   11.5799 H   0  0  0  0  0  0  0  0  0  0  0  0
   33.6843   44.9645   12.2598 H   0  0  0  0  0  0  0  0  0  0  0  0
   22.8234   46.6598    6.1793 H   0  0  0  0  0  0  0  0  0  0  0  0
   24.2782   47.1464    7.0159 H   0  0  0  0  0  0  0  0  0  0  0  0
   24.0271   47.6196    5.3528 H   0  0  0  0  0  0  0  0  0  0  0  0
   20.9503   47.8139    6.7883 H   0  0  0  0  0  0  0  0  0  0  0  0
   19.8043   49.8294    7.5346 H   0  0  0  0  0  0  0  0  0  0  0  0
   23.4724   51.8254    7.5499 H   0  0  0  0  0  0  0  0  0  0  0  0
   19.7127   53.2667    9.2739 H   0  0  0  0  0  0  0  0  0  0  0  0
   20.4706   51.8746   10.0093 H   0  0  0  0  0  0  0  0  0  0  0  0
   19.1677   51.6576    8.8654 H   0  0  0  0  0  0  0  0  0  0  0  0
   22.0912   53.1823    6.5821 H   0  0  0  0  0  0  0  0  0  0  0  0
   21.8250   54.0961    8.0475 H   0  0  0  0  0  0  0  0  0  0  0  0
   20.5220   53.8805    6.9034 H   0  0  0  0  0  0  0  0  0  0  0  0
  1  6  1  0  0  0  0
  2  3  1  0  0  0  0
  2  1  2  0  0  0  0
  2 35  1  0  0  0  0
  3  4  1  0  0  0  0
  3 36  1  0  0  0  0
  4 25  1  0  0  0  0
  4  5  2  0  0  0  0
  5 37  1  0  0  0  0
  6  5  1  0  0  0  0
  6  7  1  0  0  0  0
  8  1  1  0  0  0  0
  8  9  1  0  0  0  0
  9 11  2  0  0  0  0
 10  9  1  0  0  0  0
 10 14  1  0  0  0  0
 12 10  1  0  0  0  0
 13  8  1  0  0  0  0
 14 19  2  0  0  0  0
 15 16  2  0  0  0  0
 15 14  1  0  0  0  0
 15 38  1  0  0  0  0
 16 17  1  0  0  0  0
 16 39  1  0  0  0  0
 17 18  2  0  0  0  0
 17 40  1  0  0  0  0
 18 20  1  0  0  0  0
 19 18  1  0  0  0  0
 19 41  1  0  0  0  0
 20 24  2  0  0  0  0
 20 21  1  0  0  0  0
 21 22  1  0  0  0  0
 22 42  1  0  0  0  0
 22 43  1  0  0  0  0
 22 44  1  0  0  0  0
 23 21  1  0  0  0  0
 25 31  2  0  0  0  0
 26 28  2  0  0  0  0
 26 25  1  0  0  0  0
 27 26  1  0  0  0  0
 27 45  1  0  0  0  0
 27 46  1  0  0  0  0
 27 47  1  0  0  0  0
 28 29  1  0  0  0  0
 28 48  1  0  0  0  0
 29 30  2  0  0  0  0
 29 49  1  0  0  0  0
 30 32  1  0  0  0  0
 31 30  1  0  0  0  0
 31 50  1  0  0  0  0
 32 33  1  0  0  0  0
 33 51  1  0  0  0  0
 33 52  1  0  0  0  0
 33 53  1  0  0  0  0
 34 32  1  0  0  0  0
 34 54  1  0  0  0  0
 34 55  1  0  0  0  0
 34 56  1  0  0  0  0
M  END
>  <REMARK>
 VINA RESULT:      -7.6      3.586     10.234
  5 active torsions:
  status: ('A' for Active; 'I' for Inactive)
       I    between atoms: N_2  and  C_4 
    1  A    between atoms: C_4  and  C_6 
    2  A    between atoms: C_10  and  N_11 
       I    between atoms: N_11  and  C_13 
       I    between atoms: C_13  and  N_15 
    3  A    between atoms: N_15  and  C_17 
    4  A    between atoms: C_20  and  C_21 
    5  A    between atoms: C_26  and  N_27 

>  <TORSDO>
F 5

$$$$
resistance_project/docking/5319283d3047ac55/Q9UM73_WT/docked/molecule_0001_out.pdbqt
 OpenBabel09232609183D

 56 58  0  0  0  0  0  0  0  0999 V2000
   29.1790   47.8440    7.0390 C   0  0  0  0  0  0  0  0  0  0  0  0
   27.9580   47.9190    7.7100 C   0  0  0  0  0  0  0  0  0  0  0  0
   27.1420   49.0300    7.6380 C   0  0  0  0  0  0  0  0  0  0  0  0
   27.6100   50.0800    6.8490 C   0  0  0  0  0  0  0  0  0  0  0  0
   28.8380   49.9760    6.1870 C   0  0  0  0  0  0  0  0  0  0  0  0
   29.6170   48.8710    6.2790 N   0  0  0  0  0  0  0  0  0  0  0  0
   30.5090   48.8160    5.7870 H   0  0  0  0  0  0  0  0  0  0  0  0
   29.9180   46.6390    7.2010 N   0  0  0  0  0  0  0  0  0  0  0  0
   31.1130   46.6030    7.9340 C   0  0  0  0  0  0  0  0  0  0  0  0
   31.8070   45.3500    8.0080 N   0  0  0  0  0  0  0  0  0  0  0  0
   31.5370   47.6460    8.4940 O   0  0  0  0  0  0  0  0  0  0  0  0
   31.4390   44.5260    7.5330 H   0  0  0  0  0  0  0  0  0  0  0  0
   29.5710   45.7810    6.7750 H   0  0  0  0  0  0  0  0  0  0  0  0
   33.0180   45.2720    8.7530 C   0  0  0  0  0  0  0  0  0  0  0  0
   33.0790   44.7970   10.0470 C   0  0  0  0  0  0  0  0  0  0  0  0
   34.2540   44.7220   10.7700 C   0  0  0  0  0  0  0  0  0  0  0  0
   35.4330   45.1310   10.2020 C   0  0  0  0  0  0  0  0  0  0  0  0
   35.3980   45.6110    8.9080 C   0  0  0  0  0  0  0  0  0  0  0  0
   34.2260   45.6840    8.1920 C   0  0  0  0  0  0  0  0  0  0  0  0
   36.6630   46.0420    8.3200 C   0  0  0  0  0  0  0  0  0  0  0  0
   37.4690   47.0610    8.9070 N   0  0  0  0  0  0  0  0  0  0  0  0
   38.7700   47.3020    8.2870 C   0  0  0  0  0  0  0  0  0  0  0  0
   37.1530   47.5930    9.7180 H   0  0  0  0  0  0  0  0  0  0  0  0
   37.0620   45.4960    7.2580 O   0  0  0  0  0  0  0  0  0  0  0  0
   26.7740   51.2530    6.7580 C   0  0  0  0  0  0  0  0  0  0  0  0
   25.7480   51.2500    5.8290 C   0  0  0  0  0  0  0  0  0  0  0  0
   25.5370   50.0590    4.9630 C   0  0  0  0  0  0  0  0  0  0  0  0
   24.9070   52.3570    5.6960 C   0  0  0  0  0  0  0  0  0  0  0  0
   25.0820   53.4890    6.4960 C   0  0  0  0  0  0  0  0  0  0  0  0
   26.1070   53.4890    7.4220 C   0  0  0  0  0  0  0  0  0  0  0  0
   26.9300   52.3810    7.5370 C   0  0  0  0  0  0  0  0  0  0  0  0
   26.3650   54.5980    8.2830 N   0  0  0  0  0  0  0  0  0  0  0  0
   25.4130   55.0330    9.2840 C   0  0  0  0  0  0  0  0  0  0  0  0
   27.6340   55.2900    8.1240 C   0  0  0  0  0  0  0  0  0  0  0  0
   27.6540   47.1148    8.2808 H   0  0  0  0  0  0  0  0  0  0  0  0
   26.1980   48.7182    7.2422 H   0  0  0  0  0  0  0  0  0  0  0  0
   29.1615   50.7675    5.6091 H   0  0  0  0  0  0  0  0  0  0  0  0
   32.2048   44.4826   10.4965 H   0  0  0  0  0  0  0  0  0  0  0  0
   34.2443   44.3588   11.7359 H   0  0  0  0  0  0  0  0  0  0  0  0
   36.3205   45.0815   10.7263 H   0  0  0  0  0  0  0  0  0  0  0  0
   34.2410   46.0486    7.2267 H   0  0  0  0  0  0  0  0  0  0  0  0
   38.8981   46.6385    7.4574 H   0  0  0  0  0  0  0  0  0  0  0  0
   39.5446   47.1294    9.0047 H   0  0  0  0  0  0  0  0  0  0  0  0
   38.8200   48.3146    7.9449 H   0  0  0  0  0  0  0  0  0  0  0  0
   24.7064   50.2343    4.3117 H   0  0  0  0  0  0  0  0  0  0  0  0
   25.3365   49.2043    5.5747 H   0  0  0  0  0  0  0  0  0  0  0  0
   26.4164   49.8818    4.3798 H   0  0  0  0  0  0  0  0  0  0  0  0
   24.1469   52.3386    4.9982 H   0  0  0  0  0  0  0  0  0  0  0  0
   24.4598   54.3064    6.3974 H   0  0  0  0  0  0  0  0  0  0  0  0
   27.6910   52.3999    8.2338 H   0  0  0  0  0  0  0  0  0  0  0  0
   24.5470   54.4055    9.2491 H   0  0  0  0  0  0  0  0  0  0  0  0
   25.1278   56.0457    9.0888 H   0  0  0  0  0  0  0  0  0  0  0  0
   25.8608   54.9692   10.2537 H   0  0  0  0  0  0  0  0  0  0  0  0
   28.1974   54.8265    7.3412 H   0  0  0  0  0  0  0  0  0  0  0  0
   28.1857   55.2381    9.0393 H   0  0  0  0  0  0  0  0  0  0  0  0
   27.4527   56.3146    7.8744 H   0  0  0  0  0  0  0  0  0  0  0  0
  1  8  1  0  0  0  0
  1  2  2  0  0  0  0
  2 35  1  0  0  0  0
  3  2  1  0  0  0  0
  3 36  1  0  0  0  0
  4  3  1  0  0  0  0
  5  6  1  0  0  0  0
  5  4  2  0  0  0  0
  5 37  1  0  0  0  0
  6  1  1  0  0  0  0
  7  6  1  0  0  0  0
  8  9  1  0  0  0  0
  9 10  1  0  0  0  0
  9 11  2  0  0  0  0
 10 14  1  0  0  0  0
 12 10  1  0  0  0  0
 13  8  1  0  0  0  0
 14 15  1  0  0  0  0
 15 16  2  0  0  0  0
 15 38  1  0  0  0  0
 16 39  1  0  0  0  0
 17 16  1  0  0  0  0
 17 40  1  0  0  0  0
 18 17  2  0  0  0  0
 19 14  2  0  0  0  0
 19 18  1  0  0  0  0
 19 41  1  0  0  0  0
 20 21  1  0  0  0  0
 20 18  1  0  0  0  0
 21 23  1  0  0  0  0
 22 21  1  0  0  0  0
 22 42  1  0  0  0  0
 22 43  1  0  0  0  0
 22 44  1  0  0  0  0
 24 20  2  0  0  0  0
 25  4  1  0  0  0  0
 25 31  2  0  0  0  0
 26 25  1  0  0  0  0
 27 26  1  0  0  0  0
 27 45  1  0  0  0  0
 27 46  1  0  0  0  0
 27 47  1  0  0  0  0
 28 26  2  0  0  0  0
 28 29  1  0  0  0  0
 28 48  1  0  0  0  0
 29 30  2  0  0  0  0
 29 49  1  0  0  0  0
 30 31  1  0  0  0  0
 30 32  1  0  0  0  0
 31 50  1  0  0  0  0
 32 33  1  0  0  0  0
 33 51  1  0  0  0  0
 33 52  1  0  0  0  0
 33 53  1  0  0  0  0
 34 32  1  0  0  0  0
 34 54  1  0  0  0  0
 34 55  1  0  0  0  0
 34 56  1  0  0  0  0
M  END
>  <REMARK>
 VINA RESULT:      -7.5      2.655     10.184
  5 active torsions:
  status: ('A' for Active; 'I' for Inactive)
       I    between atoms: N_2  and  C_4 
    1  A    between atoms: C_4  and  C_6 
    2  A    between atoms: C_10  and  N_11 
       I    between atoms: N_11  and  C_13 
       I    between atoms: C_13  and  N_15 
    3  A    between atoms: N_15  and  C_17 
    4  A    between atoms: C_20  and  C_21 
    5  A    between atoms: C_26  and  N_27 

>  <TORSDO>
F 5

$$$$
resistance_project/docking/5319283d3047ac55/Q9UM73_WT/docked/molecule_0001_out.pdbqt
 OpenBabel09232609183D

 56 58  0  0  0  0  0  0  0  0999 V2000
   29.6870   48.5990    6.8850 C   0  0  0  0  0  0  0  0  0  0  0  0
   30.2050   47.4740    6.2430 C   0  0  0  0  0  0  0  0  0  0  0  0
   31.2910   46.7770    6.7340 C   0  0  0  0  0  0  0  0  0  0  0  0
   31.8430   47.2640    7.9170 C   0  0  0  0  0  0  0  0  0  0  0  0
   31.3030   48.3940    8.5390 C   0  0  0  0  0  0  0  0  0  0  0  0
   30.2360   49.0580    8.0310 N   0  0  0  0  0  0  0  0  0  0  0  0
   29.8580   49.8800    8.5020 H   0  0  0  0  0  0  0  0  0  0  0  0
   28.5650   49.2210    6.2680 N   0  0  0  0  0  0  0  0  0  0  0  0
   27.2580   48.9900    6.7190 C   0  0  0  0  0  0  0  0  0  0  0  0
   26.1900   49.6310    6.0070 N   0  0  0  0  0  0  0  0  0  0  0  0
   27.0590   48.2450    7.7120 O   0  0  0  0  0  0  0  0  0  0  0  0
   26.3880   50.2210    5.2000 H   0  0  0  0  0  0  0  0  0  0  0  0
   28.7160   49.8480    5.4800 H   0  0  0  0  0  0  0  0  0  0  0  0
   24.8500   49.4300    6.4430 C   0  0  0  0  0  0  0  0  0  0  0  0
   24.2330   48.1950    6.4440 C   0  0  0  0  0  0  0  0  0  0  0  0
   22.9320   48.0000    6.8680 C   0  0  0  0  0  0  0  0  0  0  0  0
   22.1930   49.0650    7.3150 C   0  0  0  0  0  0  0  0  0  0  0  0
   22.7870   50.3110    7.3230 C   0  0  0  0  0  0  0  0  0  0  0  0
   24.0820   50.5000    6.9010 C   0  0  0  0  0  0  0  0  0  0  0  0
   21.9840   51.4310    7.8020 C   0  0  0  0  0  0  0  0  0  0  0  0
   22.5360   52.7260    8.0230 N   0  0  0  0  0  0  0  0  0  0  0  0
   21.5940   53.7860    8.3770 C   0  0  0  0  0  0  0  0  0  0  0  0
   23.5370   52.9040    7.9380 H   0  0  0  0  0  0  0  0  0  0  0  0
   20.7570   51.2540    8.0280 O   0  0  0  0  0  0  0  0  0  0  0  0
   32.9800   46.5510    8.4500 C   0  0  0  0  0  0  0  0  0  0  0  0
   34.2270   47.1420    8.3440 C   0  0  0  0  0  0  0  0  0  0  0  0
   34.3620   48.4730    7.6930 C   0  0  0  0  0  0  0  0  0  0  0  0
   35.3620   46.4990    8.8420 C   0  0  0  0  0  0  0  0  0  0  0  0
   35.2650   45.2480    9.4580 C   0  0  0  0  0  0  0  0  0  0  0  0
   34.0190   44.6610    9.5620 C   0  0  0  0  0  0  0  0  0  0  0  0
   32.9060   45.3160    9.0620 C   0  0  0  0  0  0  0  0  0  0  0  0
   33.8180   43.3870   10.1730 N   0  0  0  0  0  0  0  0  0  0  0  0
   32.5960   43.0550   10.8770 C   0  0  0  0  0  0  0  0  0  0  0  0
   34.8940   42.4160   10.0680 C   0  0  0  0  0  0  0  0  0  0  0  0
   29.7604   47.1511    5.3695 H   0  0  0  0  0  0  0  0  0  0  0  0
   32.0554   46.7914    5.9854 H   0  0  0  0  0  0  0  0  0  0  0  0
   31.7312   48.7339    9.4143 H   0  0  0  0  0  0  0  0  0  0  0  0
   24.7690   47.3780    6.1121 H   0  0  0  0  0  0  0  0  0  0  0  0
   22.5177   47.0550    6.8482 H   0  0  0  0  0  0  0  0  0  0  0  0
   21.2205   48.9386    7.6363 H   0  0  0  0  0  0  0  0  0  0  0  0
   24.4913   51.4471    6.9236 H   0  0  0  0  0  0  0  0  0  0  0  0
   20.6025   53.3852    8.4111 H   0  0  0  0  0  0  0  0  0  0  0  0
   21.6395   54.5633    7.6431 H   0  0  0  0  0  0  0  0  0  0  0  0
   21.8504   54.1854    9.3360 H   0  0  0  0  0  0  0  0  0  0  0  0
   33.3990   48.8133    7.3740 H   0  0  0  0  0  0  0  0  0  0  0  0
   35.0102   48.3915    6.8456 H   0  0  0  0  0  0  0  0  0  0  0  0
   34.7739   49.1714    8.3912 H   0  0  0  0  0  0  0  0  0  0  0  0
   36.2845   46.9533    8.7541 H   0  0  0  0  0  0  0  0  0  0  0  0
   36.1045   44.7741    9.8264 H   0  0  0  0  0  0  0  0  0  0  0  0
   31.9834   44.8621    9.1506 H   0  0  0  0  0  0  0  0  0  0  0  0
   31.9287   43.8909   10.8469 H   0  0  0  0  0  0  0  0  0  0  0  0
   32.8242   42.8173   11.8950 H   0  0  0  0  0  0  0  0  0  0  0  0
   32.1327   42.2117   10.4090 H   0  0  0  0  0  0  0  0  0  0  0  0
   35.7061   42.8418    9.5165 H   0  0  0  0  0  0  0  0  0  0  0  0
   34.5383   41.5428    9.5621 H   0  0  0  0  0  0  0  0  0  0  0  0
   35.2299   42.1484   11.0481 H   0  0  0  0  0  0  0  0  0  0  0  0
  1  6  1  0  0  0  0
  2  3  1  0  0  0  0
  2  1  2  0  0  0  0
  2 35  1  0  0  0  0
  3  4  1  0  0  0  0
  3 36  1  0  0  0  0
  4 25  1  0  0  0  0
  4  5  2  0  0  0  0
  5 37  1  0  0  0  0
  6  7  1  0  0  0  0
  6  5  1  0  0  0  0
  8  9  1  0  0  0  0
  8  1  1  0  0  0  0
  9 11  2  0  0  0  0
 10 14  1  0  0  0  0
 10  9  1  0  0  0  0
 12 10  1  0  0  0  0
 13  8  1  0  0  0  0
 14 15  2  0  0  0  0
 14 19  1  0  0  0  0
 15 16  1  0  0  0  0
 15 38  1  0  0  0  0
 16 17  2  0  0  0  0
 16 39  1  0  0  0  0
 17 18  1  0  0  0  0
 17 40  1  0  0  0  0
 18 20  1  0  0  0  0
 19 18  2  0  0  0  0
 19 41  1  0  0  0  0
 20 21  1  0  0  0  0
 20 24  2  0  0  0  0
 21 22  1  0  0  0  0
 22 42  1  0  0  0  0
 22 43  1  0  0  0  0
 22 44  1  0  0  0  0
 23 21  1  0  0  0  0
 25 31  1  0  0  0  0
 26 25  2  0  0  0  0
 26 28  1  0  0  0  0
 27 26  1  0  0  0  0
 27 45  1  0  0  0  0
 27 46  1  0  0  0  0
 27 47  1  0  0  0  0
 28 29  2  0  0  0  0
 28 48  1  0  0  0  0
 29 30  1  0  0  0  0
 29 49  1  0  0  0  0
 30 32  1  0  0  0  0
 31 30  2  0  0  0  0
 31 50  1  0  0  0  0
 32 33  1  0  0  0  0
 33 51  1  0  0  0  0
 33 52  1  0  0  0  0
 33 53  1  0  0  0  0
 34 32  1  0  0  0  0
 34 54  1  0  0  0  0
 34 55  1  0  0  0  0
 34 56  1  0  0  0  0
M  END
>  <REMARK>
 VINA RESULT:      -7.5      3.256      4.166
  5 active torsions:
  status: ('A' for Active; 'I' for Inactive)
       I    between atoms: N_2  and  C_4 
    1  A    between atoms: C_4  and  C_6 
    2  A    between atoms: C_10  and  N_11 
       I    between atoms: N_11  and  C_13 
       I    between atoms: C_13  and  N_15 
    3  A    between atoms: N_15  and  C_17 
    4  A    between atoms: C_20  and  C_21 
    5  A    between atoms: C_26  and  N_27 

>  <TORSDO>
F 5

$$$$
resistance_project/docking/5319283d3047ac55/Q9UM73_WT/docked/molecule_0001_out.pdbqt
 OpenBabel09232609183D

 56 58  0  0  0  0  0  0  0  0999 V2000
   29.9930   47.0120    8.4460 C   0  0  0  0  0  0  0  0  0  0  0  0
   30.5420   45.7310    8.3830 C   0  0  0  0  0  0  0  0  0  0  0  0
   31.8790   45.5120    8.1180 C   0  0  0  0  0  0  0  0  0  0  0  0
   32.6550   46.6530    7.9170 C   0  0  0  0  0  0  0  0  0  0  0  0
   32.0780   47.9240    7.9860 C   0  0  0  0  0  0  0  0  0  0  0  0
   30.7600   48.1060    8.2480 N   0  0  0  0  0  0  0  0  0  0  0  0
   30.3590   49.0430    8.2950 H   0  0  0  0  0  0  0  0  0  0  0  0
   28.6000   47.0910    8.7280 N   0  0  0  0  0  0  0  0  0  0  0  0
   27.7250   47.8180    7.9090 C   0  0  0  0  0  0  0  0  0  0  0  0
   26.3450   47.8710    8.2970 N   0  0  0  0  0  0  0  0  0  0  0  0
   28.1610   48.3920    6.8790 O   0  0  0  0  0  0  0  0  0  0  0  0
   26.0280   47.4010    9.1450 H   0  0  0  0  0  0  0  0  0  0  0  0
   28.2300   46.6070    9.5450 H   0  0  0  0  0  0  0  0  0  0  0  0
   25.4250   48.5900    7.4840 C   0  0  0  0  0  0  0  0  0  0  0  0
   24.4110   47.9820    6.7720 C   0  0  0  0  0  0  0  0  0  0  0  0
   23.5180   48.6810    5.9820 C   0  0  0  0  0  0  0  0  0  0  0  0
   23.6160   50.0450    5.8810 C   0  0  0  0  0  0  0  0  0  0  0  0
   24.6220   50.6770    6.5840 C   0  0  0  0  0  0  0  0  0  0  0  0
   25.5100   49.9770    7.3690 C   0  0  0  0  0  0  0  0  0  0  0  0
   24.7120   52.1290    6.4640 C   0  0  0  0  0  0  0  0  0  0  0  0
   25.5320   52.9160    7.3230 N   0  0  0  0  0  0  0  0  0  0  0  0
   25.6280   54.3400    7.0090 C   0  0  0  0  0  0  0  0  0  0  0  0
   26.0260   52.5060    8.1160 H   0  0  0  0  0  0  0  0  0  0  0  0
   24.0430   52.7120    5.5690 O   0  0  0  0  0  0  0  0  0  0  0  0
   34.0570   46.4490    7.6390 C   0  0  0  0  0  0  0  0  0  0  0  0
   34.9250   46.3440    8.7110 C   0  0  0  0  0  0  0  0  0  0  0  0
   34.4000   46.4410   10.1000 C   0  0  0  0  0  0  0  0  0  0  0  0
   36.2920   46.1470    8.5030 C   0  0  0  0  0  0  0  0  0  0  0  0
   36.8120   46.0520    7.2090 C   0  0  0  0  0  0  0  0  0  0  0  0
   35.9430   46.1580    6.1410 C   0  0  0  0  0  0  0  0  0  0  0  0
   34.5920   46.3530    6.3700 C   0  0  0  0  0  0  0  0  0  0  0  0
   36.3790   46.0740    4.7840 N   0  0  0  0  0  0  0  0  0  0  0  0
   35.7620   45.1730    3.8310 C   0  0  0  0  0  0  0  0  0  0  0  0
   37.4790   46.9320    4.3790 C   0  0  0  0  0  0  0  0  0  0  0  0
   29.9264   44.9178    8.5402 H   0  0  0  0  0  0  0  0  0  0  0  0
   32.2936   44.9752    8.9456 H   0  0  0  0  0  0  0  0  0  0  0  0
   32.6749   48.7517    7.8324 H   0  0  0  0  0  0  0  0  0  0  0  0
   24.3150   46.9563    6.8324 H   0  0  0  0  0  0  0  0  0  0  0  0
   22.7782   48.1769    5.4686 H   0  0  0  0  0  0  0  0  0  0  0  0
   22.9572   50.5832    5.2967 H   0  0  0  0  0  0  0  0  0  0  0  0
   26.2488   50.4857    7.8794 H   0  0  0  0  0  0  0  0  0  0  0  0
   25.0357   54.5553    6.1443 H   0  0  0  0  0  0  0  0  0  0  0  0
   26.6490   54.5943    6.8144 H   0  0  0  0  0  0  0  0  0  0  0  0
   25.2696   54.9131    7.8385 H   0  0  0  0  0  0  0  0  0  0  0  0
   33.3409   46.5905   10.0713 H   0  0  0  0  0  0  0  0  0  0  0  0
   34.8633   47.2660   10.5996 H   0  0  0  0  0  0  0  0  0  0  0  0
   34.6183   45.5362   10.6278 H   0  0  0  0  0  0  0  0  0  0  0  0
   36.9255   46.0707    9.3141 H   0  0  0  0  0  0  0  0  0  0  0  0
   37.8220   45.9060    7.0553 H   0  0  0  0  0  0  0  0  0  0  0  0
   33.9586   46.4298    5.5588 H   0  0  0  0  0  0  0  0  0  0  0  0
   36.2433   45.2747    2.8808 H   0  0  0  0  0  0  0  0  0  0  0  0
   34.7241   45.4139    3.7327 H   0  0  0  0  0  0  0  0  0  0  0  0
   35.8631   44.1652    4.1759 H   0  0  0  0  0  0  0  0  0  0  0  0
   37.6990   46.7658    3.3451 H   0  0  0  0  0  0  0  0  0  0  0  0
   38.3431   46.7062    4.9683 H   0  0  0  0  0  0  0  0  0  0  0  0
   37.2052   47.9560    4.5253 H   0  0  0  0  0  0  0  0  0  0  0  0
  1  8  1  0  0  0  0
  2  1  2  0  0  0  0
  2 35  1  0  0  0  0
  3  2  1  0  0  0  0
  3 36  1  0  0  0  0
  4  5  2  0  0  0  0
  4  3  1  0  0  0  0
  5  6  1  0  0  0  0
  5 37  1  0  0  0  0
  6  7  1  0  0  0  0
  6  1  1  0  0  0  0
  8 13  1  0  0  0  0
  9 10  1  0  0  0  0
  9  8  1  0  0  0  0
 10 12  1  0  0  0  0
 11  9  2  0  0  0  0
 14 10  1  0  0  0  0
 15 14  2  0  0  0  0
 15 38  1  0  0  0  0
 16 15  1  0  0  0  0
 16 39  1  0  0  0  0
 17 16  2  0  0  0  0
 17 18  1  0  0  0  0
 17 40  1  0  0  0  0
 18 19  2  0  0  0  0
 19 14  1  0  0  0  0
 19 41  1  0  0  0  0
 20 18  1  0  0  0  0
 20 21  1  0  0  0  0
 21 23  1  0  0  0  0
 22 21  1  0  0  0  0
 22 42  1  0  0  0  0
 22 43  1  0  0  0  0
 22 44  1  0  0  0  0
 24 20  2  0  0  0  0
 25  4  1  0  0  0  0
 25 26  2  0  0  0  0
 26 27  1  0  0  0  0
 27 45  1  0  0  0  0
 27 46  1  0  0  0  0
 27 47  1  0  0  0  0
 28 26  1  0  0  0  0
 28 48  1  0  0  0  0
 29 28  2  0  0  0  0
 29 49  1  0  0  0  0
 30 31  2  0  0  0  0
 30 29  1  0  0  0  0
 31 25  1  0  0  0  0
 31 50  1  0  0  0  0
 32 30  1  0  0  0  0
 33 32  1  0  0  0  0
 33 51  1  0  0  0  0
 33 52  1  0  0  0  0
 33 53  1  0  0  0  0
 34 32  1  0  0  0  0
 34 54  1  0  0  0  0
 34 55  1  0  0  0  0
 34 56  1  0  0  0  0
M  END
>  <REMARK>
 VINA RESULT:      -7.5      2.719      3.887
  5 active torsions:
  status: ('A' for Active; 'I' for Inactive)
       I    between atoms: N_2  and  C_4 
    1  A    between atoms: C_4  and  C_6 
    2  A    between atoms: C_10  and  N_11 
       I    between atoms: N_11  and  C_13 
       I    between atoms: C_13  and  N_15 
    3  A    between atoms: N_15  and  C_17 
    4  A    between atoms: C_20  and  C_21 
    5  A    between atoms: C_26  and  N_27 

>  <TORSDO>
F 5

$$$$
resistance_project/docking/5319283d3047ac55/Q9UM73_WT/docked/molecule_0001_out.pdbqt
 OpenBabel09232609183D

 56 58  0  0  0  0  0  0  0  0999 V2000
   29.3950   46.0670    8.7070 C   0  0  0  0  0  0  0  0  0  0  0  0
   29.4770   44.6760    8.7870 C   0  0  0  0  0  0  0  0  0  0  0  0
   30.6820   44.0040    8.7450 C   0  0  0  0  0  0  0  0  0  0  0  0
   31.8200   44.7990    8.6170 C   0  0  0  0  0  0  0  0  0  0  0  0
   31.7070   46.1910    8.5380 C   0  0  0  0  0  0  0  0  0  0  0  0
   30.5080   46.8220    8.5820 N   0  0  0  0  0  0  0  0  0  0  0  0
   30.4490   47.8390    8.5240 H   0  0  0  0  0  0  0  0  0  0  0  0
   28.0890   46.6280    8.7640 N   0  0  0  0  0  0  0  0  0  0  0  0
   27.7190   47.7130    7.9560 C   0  0  0  0  0  0  0  0  0  0  0  0
   26.3920   48.2340    8.1140 N   0  0  0  0  0  0  0  0  0  0  0  0
   28.5410   48.1910    7.1330 O   0  0  0  0  0  0  0  0  0  0  0  0
   25.7550   47.8280    8.7990 H   0  0  0  0  0  0  0  0  0  0  0  0
   27.4050   46.2320    9.4080 H   0  0  0  0  0  0  0  0  0  0  0  0
   25.9770   49.3280    7.3030 C   0  0  0  0  0  0  0  0  0  0  0  0
   25.0490   49.2070    6.2890 C   0  0  0  0  0  0  0  0  0  0  0  0
   24.6470   50.2690    5.5020 C   0  0  0  0  0  0  0  0  0  0  0  0
   25.1760   51.5160    5.7140 C   0  0  0  0  0  0  0  0  0  0  0  0
   26.1070   51.6630    6.7220 C   0  0  0  0  0  0  0  0  0  0  0  0
   26.5050   50.6030    7.5040 C   0  0  0  0  0  0  0  0  0  0  0  0
   26.6600   52.9970    6.9320 C   0  0  0  0  0  0  0  0  0  0  0  0
   27.2640   53.7470    5.8810 N   0  0  0  0  0  0  0  0  0  0  0  0
   27.6580   55.1180    6.1990 C   0  0  0  0  0  0  0  0  0  0  0  0
   27.4130   53.3470    4.9540 H   0  0  0  0  0  0  0  0  0  0  0  0
   26.6020   53.5110    8.0810 O   0  0  0  0  0  0  0  0  0  0  0  0
   33.0920   44.1180    8.5700 C   0  0  0  0  0  0  0  0  0  0  0  0
   33.4190   43.2770    9.6190 C   0  0  0  0  0  0  0  0  0  0  0  0
   32.4670   43.0980   10.7480 C   0  0  0  0  0  0  0  0  0  0  0  0
   34.6360   42.5920    9.6270 C   0  0  0  0  0  0  0  0  0  0  0  0
   35.5490   42.7400    8.5800 C   0  0  0  0  0  0  0  0  0  0  0  0
   35.2200   43.5810    7.5340 C   0  0  0  0  0  0  0  0  0  0  0  0
   34.0080   44.2510    7.5460 C   0  0  0  0  0  0  0  0  0  0  0  0
   36.0850   43.7980    6.4200 N   0  0  0  0  0  0  0  0  0  0  0  0
   37.4520   43.3170    6.4030 C   0  0  0  0  0  0  0  0  0  0  0  0
   35.5470   44.5280    5.2850 C   0  0  0  0  0  0  0  0  0  0  0  0
   28.6059   44.1306    8.8809 H   0  0  0  0  0  0  0  0  0  0  0  0
   30.7753   43.4419    9.6507 H   0  0  0  0  0  0  0  0  0  0  0  0
   32.5650   46.7565    8.4431 H   0  0  0  0  0  0  0  0  0  0  0  0
   24.6354   48.2786    6.1099 H   0  0  0  0  0  0  0  0  0  0  0  0
   23.9494   50.1238    4.7555 H   0  0  0  0  0  0  0  0  0  0  0  0
   24.8865   52.3210    5.1368 H   0  0  0  0  0  0  0  0  0  0  0  0
   27.2033   50.7535    8.2489 H   0  0  0  0  0  0  0  0  0  0  0  0
   28.0961   55.5727    5.3351 H   0  0  0  0  0  0  0  0  0  0  0  0
   28.3707   55.1083    6.9971 H   0  0  0  0  0  0  0  0  0  0  0  0
   26.7957   55.6768    6.4976 H   0  0  0  0  0  0  0  0  0  0  0  0
   31.5946   43.6933   10.5767 H   0  0  0  0  0  0  0  0  0  0  0  0
   32.9343   43.4043   11.6605 H   0  0  0  0  0  0  0  0  0  0  0  0
   32.1874   42.0676   10.8188 H   0  0  0  0  0  0  0  0  0  0  0  0
   34.8639   41.9682   10.4169 H   0  0  0  0  0  0  0  0  0  0  0  0
   36.4480   42.2332    8.5875 H   0  0  0  0  0  0  0  0  0  0  0  0
   33.7803   44.8756    6.7567 H   0  0  0  0  0  0  0  0  0  0  0  0
   37.9144   43.5891    5.4772 H   0  0  0  0  0  0  0  0  0  0  0  0
   37.4566   42.2518    6.5045 H   0  0  0  0  0  0  0  0  0  0  0  0
   37.9943   43.7549    7.2148 H   0  0  0  0  0  0  0  0  0  0  0  0
   36.2989   44.6162    4.5288 H   0  0  0  0  0  0  0  0  0  0  0  0
   35.2423   45.5039    5.6006 H   0  0  0  0  0  0  0  0  0  0  0  0
   34.7036   44.0015    4.8896 H   0  0  0  0  0  0  0  0  0  0  0  0
  1  8  1  0  0  0  0
  1  2  2  0  0  0  0
  2 35  1  0  0  0  0
  3  2  1  0  0  0  0
  3 36  1  0  0  0  0
  4  3  1  0  0  0  0
  5  6  1  0  0  0  0
  5  4  2  0  0  0  0
  5 37  1  0  0  0  0
  6  1  1  0  0  0  0
  7  6  1  0  0  0  0
  8 13  1  0  0  0  0
  9 10  1  0  0  0  0
  9  8  1  0  0  0  0
 10 12  1  0  0  0  0
 11  9  2  0  0  0  0
 14 19  1  0  0  0  0
 14 10  1  0  0  0  0
 15 14  2  0  0  0  0
 15 38  1  0  0  0  0
 16 17  2  0  0  0  0
 16 15  1  0  0  0  0
 16 39  1  0  0  0  0
 17 18  1  0  0  0  0
 17 40  1  0  0  0  0
 18 20  1  0  0  0  0
 18 19  2  0  0  0  0
 19 41  1  0  0  0  0
 20 24  2  0  0  0  0
 21 22  1  0  0  0  0
 21 20  1  0  0  0  0
 22 42  1  0  0  0  0
 22 43  1  0  0  0  0
 22 44  1  0  0  0  0
 23 21  1  0  0  0  0
 25  4  1  0  0  0  0
 25 26  2  0  0  0  0
 26 28  1  0  0  0  0
 26 27  1  0  0  0  0
 27 45  1  0  0  0  0
 27 46  1  0  0  0  0
 27 47  1  0  0  0  0
 28 48  1  0  0  0  0
 29 28  2  0  0  0  0
 29 49  1  0  0  0  0
 30 31  2  0  0  0  0
 30 29  1  0  0  0  0
 31 25  1  0  0  0  0
 31 50  1  0  0  0  0
 32 30  1  0  0  0  0
 33 32  1  0  0  0  0
 33 51  1  0  0  0  0
 33 52  1  0  0  0  0
 33 53  1  0  0  0  0
 34 32  1  0  0  0  0
 34 54  1  0  0  0  0
 34 55  1  0  0  0  0
 34 56  1  0  0  0  0
M  END
>  <REMARK>
 VINA RESULT:      -7.5      1.900      2.539
  5 active torsions:
  status: ('A' for Active; 'I' for Inactive)
       I    between atoms: N_2  and  C_4 
    1  A    between atoms: C_4  and  C_6 
    2  A    between atoms: C_10  and  N_11 
       I    between atoms: N_11  and  C_13 
       I    between atoms: C_13  and  N_15 
    3  A    between atoms: N_15  and  C_17 
    4  A    between atoms: C_20  and  C_21 
    5  A    between atoms: C_26  and  N_27 

>  <TORSDO>
F 5

$$$$
resistance_project/docking/5319283d3047ac55/Q9UM73_WT/docked/molecule_0001_out.pdbqt
 OpenBabel09232609183D

 56 58  0  0  0  0  0  0  0  0999 V2000
   28.0620   47.6870    8.2160 C   0  0  0  0  0  0  0  0  0  0  0  0
   28.2250   46.3110    8.3790 C   0  0  0  0  0  0  0  0  0  0  0  0
   29.4630   45.7020    8.3280 C   0  0  0  0  0  0  0  0  0  0  0  0
   30.5490   46.5470    8.1040 C   0  0  0  0  0  0  0  0  0  0  0  0
   30.3560   47.9230    7.9450 C   0  0  0  0  0  0  0  0  0  0  0  0
   29.1260   48.4910    7.9990 N   0  0  0  0  0  0  0  0  0  0  0  0
   29.0080   49.4970    7.8820 H   0  0  0  0  0  0  0  0  0  0  0  0
   26.7300   48.1810    8.2930 N   0  0  0  0  0  0  0  0  0  0  0  0
   26.1970   49.0160    7.3000 C   0  0  0  0  0  0  0  0  0  0  0  0
   24.8580   49.4940    7.4860 N   0  0  0  0  0  0  0  0  0  0  0  0
   26.8910   49.3170    6.2960 O   0  0  0  0  0  0  0  0  0  0  0  0
   24.3280   49.2370    8.3180 H   0  0  0  0  0  0  0  0  0  0  0  0
   26.1490   47.9220    9.0890 H   0  0  0  0  0  0  0  0  0  0  0  0
   24.2800   50.3350    6.4930 C   0  0  0  0  0  0  0  0  0  0  0  0
   23.6260   49.8480    5.3790 C   0  0  0  0  0  0  0  0  0  0  0  0
   23.0650   50.6640    4.4160 C   0  0  0  0  0  0  0  0  0  0  0  0
   23.1440   52.0270    4.5440 C   0  0  0  0  0  0  0  0  0  0  0  0
   23.7930   52.5390    5.6490 C   0  0  0  0  0  0  0  0  0  0  0  0
   24.3500   51.7230    6.6060 C   0  0  0  0  0  0  0  0  0  0  0  0
   23.8670   53.9920    5.7680 C   0  0  0  0  0  0  0  0  0  0  0  0
   24.8490   54.6420    6.5710 N   0  0  0  0  0  0  0  0  0  0  0  0
   24.8910   56.1010    6.4970 C   0  0  0  0  0  0  0  0  0  0  0  0
   25.4900   54.1160    7.1660 H   0  0  0  0  0  0  0  0  0  0  0  0
   23.0370   54.7010    5.1400 O   0  0  0  0  0  0  0  0  0  0  0  0
   31.8540   45.9330    8.0460 C   0  0  0  0  0  0  0  0  0  0  0  0
   32.5150   45.9210    6.8300 C   0  0  0  0  0  0  0  0  0  0  0  0
   31.8740   46.5300    5.6340 C   0  0  0  0  0  0  0  0  0  0  0  0
   33.7800   45.3400    6.7150 C   0  0  0  0  0  0  0  0  0  0  0  0
   34.4060   44.7610    7.8220 C   0  0  0  0  0  0  0  0  0  0  0  0
   33.7430   44.7740    9.0340 C   0  0  0  0  0  0  0  0  0  0  0  0
   32.4900   45.3550    9.1270 C   0  0  0  0  0  0  0  0  0  0  0  0
   34.3000   44.2080   10.2200 N   0  0  0  0  0  0  0  0  0  0  0  0
   34.7010   42.8170   10.2940 C   0  0  0  0  0  0  0  0  0  0  0  0
   34.4560   45.0810   11.3710 C   0  0  0  0  0  0  0  0  0  0  0  0
   27.3900   45.7273    8.5436 H   0  0  0  0  0  0  0  0  0  0  0  0
   29.6221   45.2043    9.2617 H   0  0  0  0  0  0  0  0  0  0  0  0
   31.1772   48.5262    7.7811 H   0  0  0  0  0  0  0  0  0  0  0  0
   23.5528   48.8255    5.2601 H   0  0  0  0  0  0  0  0  0  0  0  0
   22.5870   50.2484    3.6012 H   0  0  0  0  0  0  0  0  0  0  0  0
   22.7301   52.6518    3.8345 H   0  0  0  0  0  0  0  0  0  0  0  0
   24.8264   52.1439    7.4190 H   0  0  0  0  0  0  0  0  0  0  0  0
   24.1383   56.4455    5.8190 H   0  0  0  0  0  0  0  0  0  0  0  0
   25.8538   56.4129    6.1496 H   0  0  0  0  0  0  0  0  0  0  0  0
   24.7117   56.5127    7.4682 H   0  0  0  0  0  0  0  0  0  0  0  0
   32.5246   46.4293    4.7905 H   0  0  0  0  0  0  0  0  0  0  0  0
   31.6874   47.5673    5.8187 H   0  0  0  0  0  0  0  0  0  0  0  0
   30.9489   46.0315    5.4324 H   0  0  0  0  0  0  0  0  0  0  0  0
   34.2585   45.3383    5.8006 H   0  0  0  0  0  0  0  0  0  0  0  0
   35.3415   44.3338    7.7362 H   0  0  0  0  0  0  0  0  0  0  0  0
   32.0116   45.3563   10.0414 H   0  0  0  0  0  0  0  0  0  0  0  0
   34.5102   42.3404    9.3552 H   0  0  0  0  0  0  0  0  0  0  0  0
   34.1432   42.3254   11.0635 H   0  0  0  0  0  0  0  0  0  0  0  0
   35.7457   42.7584   10.5179 H   0  0  0  0  0  0  0  0  0  0  0  0
   34.1070   46.0620   11.1245 H   0  0  0  0  0  0  0  0  0  0  0  0
   35.4892   45.1284   11.6453 H   0  0  0  0  0  0  0  0  0  0  0  0
   33.8867   44.6955   12.1908 H   0  0  0  0  0  0  0  0  0  0  0  0
  1  8  1  0  0  0  0
  1  2  2  0  0  0  0
  2 35  1  0  0  0  0
  3  2  1  0  0  0  0
  3 36  1  0  0  0  0
  4  3  1  0  0  0  0
  5  6  1  0  0  0  0
  5  4  2  0  0  0  0
  5 37  1  0  0  0  0
  6  1  1  0  0  0  0
  7  6  1  0  0  0  0
  8 13  1  0  0  0  0
  9 10  1  0  0  0  0
  9  8  1  0  0  0  0
 10 12  1  0  0  0  0
 11  9  2  0  0  0  0
 14 19  1  0  0  0  0
 14 10  1  0  0  0  0
 15 14  2  0  0  0  0
 15 38  1  0  0  0  0
 16 17  2  0  0  0  0
 16 15  1  0  0  0  0
 16 39  1  0  0  0  0
 17 18  1  0  0  0  0
 17 40  1  0  0  0  0
 18 20  1  0  0  0  0
 18 19  2  0  0  0  0
 19 41  1  0  0  0  0
 20 21  1  0  0  0  0
 21 23  1  0  0  0  0
 22 21  1  0  0  0  0
 22 42  1  0  0  0  0
 22 43  1  0  0  0  0
 22 44  1  0  0  0  0
 24 20  2  0  0  0  0
 25  4  1  0  0  0  0
 25 31  2  0  0  0  0
 26 25  1  0  0  0  0
 27 26  1  0  0  0  0
 27 45  1  0  0  0  0
 27 46  1  0  0  0  0
 27 47  1  0  0  0  0
 28 26  2  0  0  0  0
 28 29  1  0  0  0  0
 28 48  1  0  0  0  0
 29 30  2  0  0  0  0
 29 49  1  0  0  0  0
 30 31  1  0  0  0  0
 30 32  1  0  0  0  0
 31 50  1  0  0  0  0
 32 33  1  0  0  0  0
 32 34  1  0  0  0  0
 33 51  1  0  0  0  0
 33 52  1  0  0  0  0
 33 53  1  0  0  0  0
 34 54  1  0  0  0  0
 34 55  1  0  0  0  0
 34 56  1  0  0  0  0
M  END
>  <REMARK>
 VINA RESULT:      -7.5      2.102      2.575
  5 active torsions:
  status: ('A' for Active; 'I' for Inactive)
       I    between atoms: N_2  and  C_4 
    1  A    between atoms: C_4  and  C_6 
    2  A    between atoms: C_10  and  N_11 
       I    between atoms: N_11  and  C_13 
       I    between atoms: C_13  and  N_15 
    3  A    between atoms: N_15  and  C_17 
    4  A    between atoms: C_20  and  C_21 
    5  A    between atoms: C_26  and  N_27 

>  <TORSDO>
F 5

$$$$
