resistance_project/docking/5319283d3047ac55/Q9UM73_WT/docked/molecule_0012_out.pdbqt
 OpenBabel09232609203D

 73 77  0  0  1  0  0  0  0  0999 V2000
   31.8650   43.8140    8.7950 C   0  0  0  0  0  0  0  0  0  0  0  0
   32.4130   42.7570    8.3810 C   0  0  0  0  0  0  0  0  0  0  0  0
   33.7030   42.5570    8.4640 N   0  0  0  0  0  0  0  0  0  0  0  0
   34.0470   41.6680    8.1010 H   0  0  0  0  0  0  0  0  0  0  0  0
   34.5200   43.2930    8.9160 C   0  0  2  0  0  0  0  0  0  0  0  0
   33.3900   44.7460    9.4330 S   0  0  0  0  0  0  0  0  0  0  0  0
   30.5490   44.4550    8.9120 C   0  0  0  0  0  0  0  0  0  0  0  0
   30.2920   45.4550    7.9680 C   0  0  0  0  0  0  0  0  0  0  0  0
   29.0750   46.1060    8.0100 C   0  0  0  0  0  0  0  0  0  0  0  0
   28.1330   45.7750    8.9660 C   0  0  0  0  0  0  0  0  0  0  0  0
   28.4040   44.7860    9.8890 C   0  0  0  0  0  0  0  0  0  0  0  0
   29.6290   44.1050    9.8760 C   0  0  0  0  0  0  0  0  0  0  0  0
   26.9100   46.5000    8.9290 N   0  0  0  0  0  0  0  0  0  0  0  0
   26.7420   47.6930    8.1950 C   0  0  0  0  0  0  0  0  0  0  0  0
   25.4530   48.2500    8.1040 N   0  0  0  0  0  0  0  0  0  0  0  0
   27.6910   48.2840    7.6160 O   0  0  0  0  0  0  0  0  0  0  0  0
   24.7060   47.7880    8.6240 H   0  0  0  0  0  0  0  0  0  0  0  0
   26.1160   46.1390    9.4580 H   0  0  0  0  0  0  0  0  0  0  0  0
   25.1030   49.4030    7.3510 C   0  0  1  0  0  0  0  0  0  0  0  0
   24.2230   49.3700    6.2980 C   0  0  0  0  0  0  0  0  0  0  0  0
   24.1380   50.6620    5.8270 C   0  0  0  0  0  0  0  0  0  0  0  0
   24.9220   51.3750    6.5700 O   0  0  0  0  0  0  0  0  0  0  0  0
   25.5120   50.6790    7.4830 N   0  0  0  0  0  0  0  0  0  0  0  0
   26.1700   51.0310    8.1770 H   0  0  0  0  0  0  0  0  0  0  0  0
   23.2900   51.0660    4.6850 C   0  0  0  0  0  0  0  0  0  0  0  0
   22.0740   50.1520    4.6430 C   0  0  0  0  0  0  0  0  0  0  0  0
   35.9150   43.4140    9.1600 N   0  0  0  0  0  0  0  0  0  0  0  0
   36.3410   42.7620    9.8190 H   0  0  0  0  0  0  0  0  0  0  0  0
   36.7580   44.3790    8.5500 C   0  0  2  0  0  0  0  0  0  0  0  0
   37.9520   44.0830    7.9980 N   0  0  0  0  0  0  0  0  0  0  0  0
   38.7180   45.0370    7.4310 C   0  0  2  0  0  0  0  0  0  0  0  0
   38.2830   43.1180    8.0100 H   0  0  0  0  0  0  0  0  0  0  0  0
   40.0480   44.7080    6.8170 C   0  0  0  0  0  0  0  0  0  0  0  0
   38.3190   46.3220    7.3940 N   0  0  0  0  0  0  0  0  0  0  0  0
   37.1350   46.6300    7.9380 C   0  0  0  0  0  0  0  0  0  0  0  0
   38.9020   47.0400    6.9650 H   0  0  0  0  0  0  0  0  0  0  0  0
   36.3320   45.6740    8.5240 C   0  0  0  0  0  0  0  0  0  0  0  0
   36.6980   48.0040    7.9080 N   0  0  0  0  0  0  0  0  0  0  0  0
   35.3020   48.3280    8.0160 C   0  0  0  0  0  0  0  0  0  0  0  0
   34.9500   49.3710    6.9850 C   0  0  0  0  0  0  0  0  0  0  0  0
   35.8680   50.4690    6.9200 N   0  0  0  0  0  0  0  0  0  0  0  0
   36.9840   50.3760    7.8250 C   0  0  0  0  0  0  0  0  0  0  0  0
   37.6970   49.0610    7.7630 C   0  0  0  0  0  0  0  0  0  0  0  0
   36.2150   50.8940    5.5970 C   0  0  0  0  0  0  0  0  0  0  0  0
   35.3230   52.0020    5.0830 C   0  0  0  0  0  0  0  0  0  0  0  0
   31.8222   42.0224    7.9611 H   0  0  0  0  0  0  0  0  0  0  0  0
   30.9969   45.7009    7.2555 H   0  0  0  0  0  0  0  0  0  0  0  0
   28.8669   46.8462    7.3216 H   0  0  0  0  0  0  0  0  0  0  0  0
   27.6949   44.5443   10.5988 H   0  0  0  0  0  0  0  0  0  0  0  0
   29.8351   43.3657   10.5659 H   0  0  0  0  0  0  0  0  0  0  0  0
   23.7250   48.5433    5.9325 H   0  0  0  0  0  0  0  0  0  0  0  0
   22.9751   52.0810    4.8099 H   0  0  0  0  0  0  0  0  0  0  0  0
   23.8413   50.9868    3.7714 H   0  0  0  0  0  0  0  0  0  0  0  0
   21.5305   50.2391    5.5606 H   0  0  0  0  0  0  0  0  0  0  0  0
   22.3934   49.1392    4.5124 H   0  0  0  0  0  0  0  0  0  0  0  0
   21.4431   50.4351    3.8265 H   0  0  0  0  0  0  0  0  0  0  0  0
   40.4907   45.6001    6.4257 H   0  0  0  0  0  0  0  0  0  0  0  0
   39.9104   44.0013    6.0254 H   0  0  0  0  0  0  0  0  0  0  0  0
   40.6908   44.2881    7.5622 H   0  0  0  0  0  0  0  0  0  0  0  0
   35.4227   45.9348    8.9365 H   0  0  0  0  0  0  0  0  0  0  0  0
   34.7170   47.4480    7.8480 H   0  0  0  0  0  0  0  0  0  0  0  0
   35.0976   48.7089    8.9948 H   0  0  0  0  0  0  0  0  0  0  0  0
   34.9244   48.8984    6.0254 H   0  0  0  0  0  0  0  0  0  0  0  0
   34.0038   49.7793    7.2728 H   0  0  0  0  0  0  0  0  0  0  0  0
   36.6237   50.5189    8.8223 H   0  0  0  0  0  0  0  0  0  0  0  0
   37.6872   51.1286    7.5350 H   0  0  0  0  0  0  0  0  0  0  0  0
   38.4124   48.9970    8.5561 H   0  0  0  0  0  0  0  0  0  0  0  0
   38.2153   48.9603    6.8324 H   0  0  0  0  0  0  0  0  0  0  0  0
   37.2257   51.2451    5.6051 H   0  0  0  0  0  0  0  0  0  0  0  0
   36.0912   50.0536    4.9464 H   0  0  0  0  0  0  0  0  0  0  0  0
   35.4225   52.8612    5.7129 H   0  0  0  0  0  0  0  0  0  0  0  0
   34.3052   51.6719    5.0882 H   0  0  0  0  0  0  0  0  0  0  0  0
   35.6102   52.2568    4.0843 H   0  0  0  0  0  0  0  0  0  0  0  0
  1  7  1  0  0  0  0
  1  6  1  0  0  0  0
  2  3  1  0  0  0  0
  2  1  2  0  0  0  0
  2 46  1  0  0  0  0
  3  5  1  0  0  0  0
  4  3  1  0  0  0  0
  5 27  1  6  0  0  0
  5  6  1  0  0  0  0
  7 12  2  0  0  0  0
  8  9  2  0  0  0  0
  8  7  1  0  0  0  0
  8 47  1  0  0  0  0
  9 10  1  0  0  0  0
  9 48  1  0  0  0  0
 10 11  2  0  0  0  0
 11 49  1  0  0  0  0
 12 11  1  0  0  0  0
 12 50  1  0  0  0  0
 13 10  1  0  0  0  0
 13 18  1  0  0  0  0
 14 13  1  0  0  0  0
 15 14  1  0  0  0  0
 15 17  1  0  0  0  0
 16 14  2  0  0  0  0
 19 23  1  0  0  0  0
 19 15  1  1  0  0  0
 20 19  1  0  0  0  0
 20 51  1  0  0  0  0
 21 20  2  0  0  0  0
 21 22  1  0  0  0  0
 22 23  1  0  0  0  0
 23 24  1  0  0  0  0
 25 21  1  0  0  0  0
 25 52  1  0  0  0  0
 25 53  1  0  0  0  0
 26 25  1  0  0  0  0
 26 54  1  0  0  0  0
 26 55  1  0  0  0  0
 26 56  1  0  0  0  0
 27 28  1  0  0  0  0
 29 27  1  1  0  0  0
 30 32  1  0  0  0  0
 30 29  1  0  0  0  0
 31 33  1  1  0  0  0
 31 30  1  0  0  0  0
 33 57  1  0  0  0  0
 33 58  1  0  0  0  0
 33 59  1  0  0  0  0
 34 31  1  0  0  0  0
 34 35  1  0  0  0  0
 35 37  2  0  0  0  0
 36 34  1  0  0  0  0
 37 29  1  0  0  0  0
 37 60  1  0  0  0  0
 38 35  1  0  0  0  0
 38 39  1  0  0  0  0
 39 61  1  0  0  0  0
 39 62  1  0  0  0  0
 40 39  1  0  0  0  0
 40 63  1  0  0  0  0
 40 64  1  0  0  0  0
 41 40  1  0  0  0  0
 41 42  1  0  0  0  0
 42 65  1  0  0  0  0
 42 66  1  0  0  0  0
 43 42  1  0  0  0  0
 43 38  1  0  0  0  0
 43 67  1  0  0  0  0
 43 68  1  0  0  0  0
 44 41  1  0  0  0  0
 44 69  1  0  0  0  0
 44 70  1  0  0  0  0
 45 44  1  0  0  0  0
 45 71  1  0  0  0  0
 45 72  1  0  0  0  0
 45 73  1  0  0  0  0
M  END
>  <MODEL>
1

>  <REMARK>
 VINA RESULT:      -8.6      0.000      0.000
  8 active torsions:
  status: ('A' for Active; 'I' for Inactive)
    1  A    between atoms: C_2  and  C_3 
    2  A    between atoms: C_5  and  N_6 
       I    between atoms: N_6  and  C_8 
       I    between atoms: C_8  and  N_10 
    3  A    between atoms: N_10  and  C_12 
    4  A    between atoms: C_15  and  C_16 
    5  A    between atoms: C_20  and  N_21 
    6  A    between atoms: N_21  and  C_23 
    7  A    between atoms: C_30  and  N_31 
    8  A    between atoms: N_34  and  C_35 

>  <TORSDO>
F 8

$$$$
resistance_project/docking/5319283d3047ac55/Q9UM73_WT/docked/molecule_0012_out.pdbqt
 OpenBabel09232609203D

 73 77  0  0  1  0  0  0  0  0999 V2000
   30.5120   44.7770    8.5970 C   0  0  0  0  0  0  0  0  0  0  0  0
   30.6970   43.5330    8.5030 C   0  0  0  0  0  0  0  0  0  0  0  0
   31.8700   42.9840    8.6880 N   0  0  0  0  0  0  0  0  0  0  0  0
   31.9140   41.9690    8.5900 H   0  0  0  0  0  0  0  0  0  0  0  0
   32.8900   43.5330    8.9590 C   0  0  2  0  0  0  0  0  0  0  0  0
   32.2730   45.3400    9.0230 S   0  0  0  0  0  0  0  0  0  0  0  0
   29.4550   45.7910    8.4870 C   0  0  0  0  0  0  0  0  0  0  0  0
   29.8230   46.9550    7.8020 C   0  0  0  0  0  0  0  0  0  0  0  0
   28.8860   47.9580    7.6550 C   0  0  0  0  0  0  0  0  0  0  0  0
   27.6130   47.8120    8.1740 C   0  0  0  0  0  0  0  0  0  0  0  0
   27.2690   46.6580    8.8450 C   0  0  0  0  0  0  0  0  0  0  0  0
   28.1950   45.6200    9.0140 C   0  0  0  0  0  0  0  0  0  0  0  0
   26.7170   48.8980    7.9700 N   0  0  0  0  0  0  0  0  0  0  0  0
   25.3830   48.7290    7.5440 C   0  0  0  0  0  0  0  0  0  0  0  0
   24.5370   49.8530    7.5170 N   0  0  0  0  0  0  0  0  0  0  0  0
   24.9110   47.6180    7.1850 O   0  0  0  0  0  0  0  0  0  0  0  0
   24.9510   50.7550    7.7590 H   0  0  0  0  0  0  0  0  0  0  0  0
   27.0550   49.8450    8.1420 H   0  0  0  0  0  0  0  0  0  0  0  0
   23.1560   49.8410    7.1810 C   0  0  1  0  0  0  0  0  0  0  0  0
   22.3270   50.9150    7.3880 C   0  0  0  0  0  0  0  0  0  0  0  0
   21.0810   50.5300    6.9410 C   0  0  0  0  0  0  0  0  0  0  0  0
   21.2060   49.3160    6.5110 O   0  0  0  0  0  0  0  0  0  0  0  0
   22.4100   48.8660    6.6300 N   0  0  0  0  0  0  0  0  0  0  0  0
   22.7360   47.9400    6.3570 H   0  0  0  0  0  0  0  0  0  0  0  0
   19.8870   51.4010    6.9850 C   0  0  0  0  0  0  0  0  0  0  0  0
   20.0270   52.3470    8.1700 C   0  0  0  0  0  0  0  0  0  0  0  0
   34.2660   43.2870    9.2160 N   0  0  0  0  0  0  0  0  0  0  0  0
   34.5050   42.7270   10.0350 H   0  0  0  0  0  0  0  0  0  0  0  0
   35.3330   43.7680    8.4130 C   0  0  2  0  0  0  0  0  0  0  0  0
   36.3730   43.0050    8.0210 N   0  0  0  0  0  0  0  0  0  0  0  0
   37.3640   43.5100    7.2600 C   0  0  1  0  0  0  0  0  0  0  0  0
   36.4110   42.0270    8.3070 H   0  0  0  0  0  0  0  0  0  0  0  0
   38.5230   42.6610    6.8230 C   0  0  0  0  0  0  0  0  0  0  0  0
   37.3530   44.7960    6.8600 N   0  0  0  0  0  0  0  0  0  0  0  0
   36.3250   45.5650    7.2420 C   0  0  0  0  0  0  0  0  0  0  0  0
   38.1060   45.1730    6.2840 H   0  0  0  0  0  0  0  0  0  0  0  0
   35.2990   45.0740    8.0210 C   0  0  0  0  0  0  0  0  0  0  0  0
   36.3040   46.9450    6.8240 N   0  0  0  0  0  0  0  0  0  0  0  0
   36.6920   47.9880    7.7330 C   0  0  0  0  0  0  0  0  0  0  0  0
   35.6980   49.1190    7.6480 C   0  0  0  0  0  0  0  0  0  0  0  0
   35.3670   49.5140    6.3110 N   0  0  0  0  0  0  0  0  0  0  0  0
   36.0130   48.7450    5.2790 C   0  0  0  0  0  0  0  0  0  0  0  0
   35.8800   47.2650    5.4620 C   0  0  0  0  0  0  0  0  0  0  0  0
   33.9770   49.7640    6.0780 C   0  0  0  0  0  0  0  0  0  0  0  0
   33.0780   49.0550    7.0670 C   0  0  0  0  0  0  0  0  0  0  0  0
   29.8946   42.9266    8.2719 H   0  0  0  0  0  0  0  0  0  0  0  0
   30.7740   47.0610    7.4154 H   0  0  0  0  0  0  0  0  0  0  0  0
   29.1379   48.8241    7.1535 H   0  0  0  0  0  0  0  0  0  0  0  0
   26.3161   46.5571    9.2282 H   0  0  0  0  0  0  0  0  0  0  0  0
   27.9406   44.7556    9.5171 H   0  0  0  0  0  0  0  0  0  0  0  0
   22.5845   51.8272    7.7961 H   0  0  0  0  0  0  0  0  0  0  0  0
   19.0074   50.8031    7.1016 H   0  0  0  0  0  0  0  0  0  0  0  0
   19.8050   51.9594    6.0759 H   0  0  0  0  0  0  0  0  0  0  0  0
   20.1082   51.7783    9.0727 H   0  0  0  0  0  0  0  0  0  0  0  0
   19.1667   52.9809    8.2239 H   0  0  0  0  0  0  0  0  0  0  0  0
   20.9045   52.9465    8.0460 H   0  0  0  0  0  0  0  0  0  0  0  0
   39.1927   43.2491    6.2310 H   0  0  0  0  0  0  0  0  0  0  0  0
   38.1630   41.8376    6.2423 H   0  0  0  0  0  0  0  0  0  0  0  0
   39.0391   42.2913    7.6843 H   0  0  0  0  0  0  0  0  0  0  0  0
   34.5170   45.6854    8.3033 H   0  0  0  0  0  0  0  0  0  0  0  0
   37.6652   48.3471    7.4705 H   0  0  0  0  0  0  0  0  0  0  0  0
   36.7130   47.6037    8.7314 H   0  0  0  0  0  0  0  0  0  0  0  0
   34.7983   48.8120    8.1392 H   0  0  0  0  0  0  0  0  0  0  0  0
   36.1574   49.9662    8.1129 H   0  0  0  0  0  0  0  0  0  0  0  0
   35.5785   49.0098    4.3377 H   0  0  0  0  0  0  0  0  0  0  0  0
   37.0572   48.9741    5.3242 H   0  0  0  0  0  0  0  0  0  0  0  0
   36.5017   46.7535    4.7572 H   0  0  0  0  0  0  0  0  0  0  0  0
   34.8676   46.9575    5.3030 H   0  0  0  0  0  0  0  0  0  0  0  0
   33.7305   49.4298    5.0919 H   0  0  0  0  0  0  0  0  0  0  0  0
   33.8158   50.8154    6.1937 H   0  0  0  0  0  0  0  0  0  0  0  0
   33.2141   47.9974    6.9782 H   0  0  0  0  0  0  0  0  0  0  0  0
   32.0573   49.3017    6.8617 H   0  0  0  0  0  0  0  0  0  0  0  0
   33.3268   49.3644    8.0606 H   0  0  0  0  0  0  0  0  0  0  0  0
  1  6  1  0  0  0  0
  2  1  2  0  0  0  0
  2  3  1  0  0  0  0
  2 46  1  0  0  0  0
  3  5  1  0  0  0  0
  4  3  1  0  0  0  0
  5  6  1  0  0  0  0
  5 27  1  6  0  0  0
  7  1  1  0  0  0  0
  7 12  2  0  0  0  0
  8  7  1  0  0  0  0
  8 47  1  0  0  0  0
  9  8  2  0  0  0  0
  9 10  1  0  0  0  0
  9 48  1  0  0  0  0
 10 11  2  0  0  0  0
 11 12  1  0  0  0  0
 11 49  1  0  0  0  0
 12 50  1  0  0  0  0
 13 18  1  0  0  0  0
 13 10  1  0  0  0  0
 14 13  1  0  0  0  0
 15 14  1  0  0  0  0
 15 17  1  0  0  0  0
 16 14  2  0  0  0  0
 19 20  1  0  0  0  0
 19 15  1  6  0  0  0
 20 51  1  0  0  0  0
 21 25  1  0  0  0  0
 21 20  2  0  0  0  0
 22 23  1  0  0  0  0
 22 21  1  0  0  0  0
 23 19  1  0  0  0  0
 24 23  1  0  0  0  0
 25 26  1  0  0  0  0
 25 52  1  0  0  0  0
 25 53  1  0  0  0  0
 26 54  1  0  0  0  0
 26 55  1  0  0  0  0
 26 56  1  0  0  0  0
 27 28  1  0  0  0  0
 29 27  1  1  0  0  0
 30 32  1  0  0  0  0
 30 29  1  0  0  0  0
 31 33  1  6  0  0  0
 31 30  1  0  0  0  0
 33 57  1  0  0  0  0
 33 58  1  0  0  0  0
 33 59  1  0  0  0  0
 34 35  1  0  0  0  0
 34 31  1  0  0  0  0
 35 37  2  0  0  0  0
 36 34  1  0  0  0  0
 37 29  1  0  0  0  0
 37 60  1  0  0  0  0
 38 35  1  0  0  0  0
 38 39  1  0  0  0  0
 39 61  1  0  0  0  0
 39 62  1  0  0  0  0
 40 39  1  0  0  0  0
 40 63  1  0  0  0  0
 40 64  1  0  0  0  0
 41 40  1  0  0  0  0
 42 43  1  0  0  0  0
 42 41  1  0  0  0  0
 42 65  1  0  0  0  0
 42 66  1  0  0  0  0
 43 38  1  0  0  0  0
 43 67  1  0  0  0  0
 43 68  1  0  0  0  0
 44 41  1  0  0  0  0
 44 45  1  0  0  0  0
 44 69  1  0  0  0  0
 44 70  1  0  0  0  0
 45 71  1  0  0  0  0
 45 72  1  0  0  0  0
 45 73  1  0  0  0  0
M  END
>  <REMARK>
 VINA RESULT:      -8.4      1.978      2.482
  8 active torsions:
  status: ('A' for Active; 'I' for Inactive)
    1  A    between atoms: C_2  and  C_3 
    2  A    between atoms: C_5  and  N_6 
       I    between atoms: N_6  and  C_8 
       I    between atoms: C_8  and  N_10 
    3  A    between atoms: N_10  and  C_12 
    4  A    between atoms: C_15  and  C_16 
    5  A    between atoms: C_20  and  N_21 
    6  A    between atoms: N_21  and  C_23 
    7  A    between atoms: C_30  and  N_31 
    8  A    between atoms: N_34  and  C_35 

>  <TORSDO>
F 8

$$$$
resistance_project/docking/5319283d3047ac55/Q9UM73_WT/docked/molecule_0012_out.pdbqt
 OpenBabel09232609203D

 73 77  0  0  1  0  0  0  0  0999 V2000
   28.7550   46.2080    8.4210 C   0  0  0  0  0  0  0  0  0  0  0  0
   27.6030   45.9170    8.8440 C   0  0  0  0  0  0  0  0  0  0  0  0
   26.6020   46.7560    8.7800 N   0  0  0  0  0  0  0  0  0  0  0  0
   25.7100   46.4250    9.1490 H   0  0  0  0  0  0  0  0  0  0  0  0
   26.6120   47.8610    8.3390 C   0  0  2  0  0  0  0  0  0  0  0  0
   28.4430   47.9750    7.8050 S   0  0  0  0  0  0  0  0  0  0  0  0
   30.1030   45.6410    8.2840 C   0  0  0  0  0  0  0  0  0  0  0  0
   30.8280   46.1030    7.1790 C   0  0  0  0  0  0  0  0  0  0  0  0
   32.1050   45.6190    6.9790 C   0  0  0  0  0  0  0  0  0  0  0  0
   32.6530   44.6980    7.8530 C   0  0  0  0  0  0  0  0  0  0  0  0
   31.9230   44.2550    8.9360 C   0  0  0  0  0  0  0  0  0  0  0  0
   30.6240   44.7240    9.1700 C   0  0  0  0  0  0  0  0  0  0  0  0
   33.9750   44.2590    7.5650 N   0  0  0  0  0  0  0  0  0  0  0  0
   35.1160   45.0630    7.7660 C   0  0  0  0  0  0  0  0  0  0  0  0
   36.3870   44.4840    7.5910 N   0  0  0  0  0  0  0  0  0  0  0  0
   35.0540   46.2770    8.0950 O   0  0  0  0  0  0  0  0  0  0  0  0
   36.4190   43.5150    7.2710 H   0  0  0  0  0  0  0  0  0  0  0  0
   34.1040   43.3170    7.1960 H   0  0  0  0  0  0  0  0  0  0  0  0
   37.6300   45.1340    7.8200 C   0  0  1  0  0  0  0  0  0  0  0  0
   38.0190   46.2640    7.1460 C   0  0  0  0  0  0  0  0  0  0  0  0
   39.2640   46.5950    7.6350 C   0  0  0  0  0  0  0  0  0  0  0  0
   39.5540   45.7040    8.5280 O   0  0  0  0  0  0  0  0  0  0  0  0
   38.6230   44.8230    8.6740 N   0  0  0  0  0  0  0  0  0  0  0  0
   38.6370   44.0330    9.3190 H   0  0  0  0  0  0  0  0  0  0  0  0
   40.0470   47.7590    7.1700 C   0  0  0  0  0  0  0  0  0  0  0  0
   39.2310   49.0190    7.4250 C   0  0  0  0  0  0  0  0  0  0  0  0
   25.7800   48.9920    8.1160 N   0  0  0  0  0  0  0  0  0  0  0  0
   25.0390   49.1780    8.7920 H   0  0  0  0  0  0  0  0  0  0  0  0
   25.9090   49.8810    7.0180 C   0  0  2  0  0  0  0  0  0  0  0  0
   25.5720   49.5570    5.7530 N   0  0  0  0  0  0  0  0  0  0  0  0
   25.7160   50.4370    4.7430 C   0  0  1  0  0  0  0  0  0  0  0  0
   25.2010   48.6270    5.5580 H   0  0  0  0  0  0  0  0  0  0  0  0
   25.3410   50.0770    3.3340 C   0  0  0  0  0  0  0  0  0  0  0  0
   26.2010   51.6750    4.9560 N   0  0  0  0  0  0  0  0  0  0  0  0
   26.5390   52.0100    6.2080 C   0  0  0  0  0  0  0  0  0  0  0  0
   26.3080   52.3370    4.1880 H   0  0  0  0  0  0  0  0  0  0  0  0
   26.4030   51.1290    7.2600 C   0  0  0  0  0  0  0  0  0  0  0  0
   27.0640   53.3310    6.4500 N   0  0  0  0  0  0  0  0  0  0  0  0
   28.3240   53.5040    7.1190 C   0  0  0  0  0  0  0  0  0  0  0  0
   28.1940   54.5910    8.1570 C   0  0  0  0  0  0  0  0  0  0  0  0
   27.5390   55.7760    7.6900 N   0  0  0  0  0  0  0  0  0  0  0  0
   27.0900   55.7180    6.3230 C   0  0  0  0  0  0  0  0  0  0  0  0
   26.2930   54.4910    6.0060 C   0  0  0  0  0  0  0  0  0  0  0  0
   26.5890   56.3440    8.5990 C   0  0  0  0  0  0  0  0  0  0  0  0
   25.7950   55.2980    9.3490 C   0  0  0  0  0  0  0  0  0  0  0  0
   27.4448   44.9838    9.2552 H   0  0  0  0  0  0  0  0  0  0  0  0
   30.4166   46.7903    6.5283 H   0  0  0  0  0  0  0  0  0  0  0  0
   32.6556   45.9472    6.1702 H   0  0  0  0  0  0  0  0  0  0  0  0
   32.3399   43.5679    9.5835 H   0  0  0  0  0  0  0  0  0  0  0  0
   30.0755   44.3935    9.9793 H   0  0  0  0  0  0  0  0  0  0  0  0
   37.4859   46.7656    6.4185 H   0  0  0  0  0  0  0  0  0  0  0  0
   40.9706   47.8115    7.7077 H   0  0  0  0  0  0  0  0  0  0  0  0
   40.2617   47.6647    6.1260 H   0  0  0  0  0  0  0  0  0  0  0  0
   39.0223   49.1031    8.4711 H   0  0  0  0  0  0  0  0  0  0  0  0
   38.3112   48.9644    6.8810 H   0  0  0  0  0  0  0  0  0  0  0  0
   39.7861   49.8749    7.1021 H   0  0  0  0  0  0  0  0  0  0  0  0
   25.5315   50.9102    2.6902 H   0  0  0  0  0  0  0  0  0  0  0  0
   24.3016   49.8262    3.2946 H   0  0  0  0  0  0  0  0  0  0  0  0
   25.9227   49.2381    3.0133 H   0  0  0  0  0  0  0  0  0  0  0  0
   26.6710   51.4098    8.2162 H   0  0  0  0  0  0  0  0  0  0  0  0
   29.0724   53.7792    6.4055 H   0  0  0  0  0  0  0  0  0  0  0  0
   28.6057   52.5875    7.5940 H   0  0  0  0  0  0  0  0  0  0  0  0
   29.1761   54.8587    8.4868 H   0  0  0  0  0  0  0  0  0  0  0  0
   27.5857   54.1937    8.9425 H   0  0  0  0  0  0  0  0  0  0  0  0
   26.4809   56.5763    6.1302 H   0  0  0  0  0  0  0  0  0  0  0  0
   27.9640   55.6927    5.7062 H   0  0  0  0  0  0  0  0  0  0  0  0
   26.1201   54.4314    4.9517 H   0  0  0  0  0  0  0  0  0  0  0  0
   25.3453   54.5222    6.5017 H   0  0  0  0  0  0  0  0  0  0  0  0
   25.9090   56.9560    8.0441 H   0  0  0  0  0  0  0  0  0  0  0  0
   27.1361   56.9120    9.3222 H   0  0  0  0  0  0  0  0  0  0  0  0
   25.2338   54.7096    8.6535 H   0  0  0  0  0  0  0  0  0  0  0  0
   25.1254   55.7794   10.0307 H   0  0  0  0  0  0  0  0  0  0  0  0
   26.4640   54.6649    9.8935 H   0  0  0  0  0  0  0  0  0  0  0  0
  1  2  2  0  0  0  0
  2 46  1  0  0  0  0
  3  2  1  0  0  0  0
  3  4  1  0  0  0  0
  5 27  1  1  0  0  0
  5  3  1  0  0  0  0
  6  5  1  0  0  0  0
  6  1  1  0  0  0  0
  7  1  1  0  0  0  0
  7 12  2  0  0  0  0
  8  7  1  0  0  0  0
  8 47  1  0  0  0  0
  9  8  2  0  0  0  0
  9 10  1  0  0  0  0
  9 48  1  0  0  0  0
 10 11  2  0  0  0  0
 11 12  1  0  0  0  0
 11 49  1  0  0  0  0
 12 50  1  0  0  0  0
 13 14  1  0  0  0  0
 13 10  1  0  0  0  0
 14 16  2  0  0  0  0
 15 14  1  0  0  0  0
 17 15  1  0  0  0  0
 18 13  1  0  0  0  0
 19 15  1  1  0  0  0
 19 23  1  0  0  0  0
 20 21  2  0  0  0  0
 20 19  1  0  0  0  0
 20 51  1  0  0  0  0
 21 22  1  0  0  0  0
 22 23  1  0  0  0  0
 23 24  1  0  0  0  0
 25 26  1  0  0  0  0
 25 21  1  0  0  0  0
 25 52  1  0  0  0  0
 25 53  1  0  0  0  0
 26 54  1  0  0  0  0
 26 55  1  0  0  0  0
 26 56  1  0  0  0  0
 27 28  1  0  0  0  0
 29 37  1  0  0  0  0
 29 27  1  6  0  0  0
 30 29  1  0  0  0  0
 31 33  1  1  0  0  0
 31 34  1  0  0  0  0
 31 30  1  0  0  0  0
 32 30  1  0  0  0  0
 33 57  1  0  0  0  0
 33 58  1  0  0  0  0
 33 59  1  0  0  0  0
 34 35  1  0  0  0  0
 35 38  1  0  0  0  0
 35 37  2  0  0  0  0
 36 34  1  0  0  0  0
 37 60  1  0  0  0  0
 38 39  1  0  0  0  0
 39 40  1  0  0  0  0
 39 61  1  0  0  0  0
 39 62  1  0  0  0  0
 40 63  1  0  0  0  0
 40 64  1  0  0  0  0
 41 40  1  0  0  0  0
 41 44  1  0  0  0  0
 42 41  1  0  0  0  0
 42 65  1  0  0  0  0
 42 66  1  0  0  0  0
 43 42  1  0  0  0  0
 43 38  1  0  0  0  0
 43 67  1  0  0  0  0
 43 68  1  0  0  0  0
 44 45  1  0  0  0  0
 44 69  1  0  0  0  0
 44 70  1  0  0  0  0
 45 71  1  0  0  0  0
 45 72  1  0  0  0  0
 45 73  1  0  0  0  0
M  END
>  <REMARK>
 VINA RESULT:      -8.2      3.832     11.011
  8 active torsions:
  status: ('A' for Active; 'I' for Inactive)
    1  A    between atoms: C_2  and  C_3 
    2  A    between atoms: C_5  and  N_6 
       I    between atoms: N_6  and  C_8 
       I    between atoms: C_8  and  N_10 
    3  A    between atoms: N_10  and  C_12 
    4  A    between atoms: C_15  and  C_16 
    5  A    between atoms: C_20  and  N_21 
    6  A    between atoms: N_21  and  C_23 
    7  A    between atoms: C_30  and  N_31 
    8  A    between atoms: N_34  and  C_35 

>  <TORSDO>
F 8

$$$$
resistance_project/docking/5319283d3047ac55/Q9UM73_WT/docked/molecule_0012_out.pdbqt
 OpenBabel09232609203D

 73 77  0  0  1  0  0  0  0  0999 V2000
   28.5500   49.9590    6.6220 C   0  0  0  0  0  0  0  0  0  0  0  0
   28.7650   51.1770    6.8680 C   0  0  0  0  0  0  0  0  0  0  0  0
   28.2060   52.1400    6.1810 N   0  0  0  0  0  0  0  0  0  0  0  0
   28.4450   53.0920    6.4590 H   0  0  0  0  0  0  0  0  0  0  0  0
   27.4510   52.0310    5.2680 C   0  0  2  0  0  0  0  0  0  0  0  0
   27.3470   50.1260    5.1640 S   0  0  0  0  0  0  0  0  0  0  0  0
   28.9170   48.6140    7.0830 C   0  0  0  0  0  0  0  0  0  0  0  0
   29.9680   48.0150    6.3800 C   0  0  0  0  0  0  0  0  0  0  0  0
   30.3740   46.7490    6.7520 C   0  0  0  0  0  0  0  0  0  0  0  0
   29.7520   46.0900    7.7970 C   0  0  0  0  0  0  0  0  0  0  0  0
   28.7180   46.6960    8.4770 C   0  0  0  0  0  0  0  0  0  0  0  0
   28.2800   47.9800    8.1270 C   0  0  0  0  0  0  0  0  0  0  0  0
   30.2410   44.7900    8.1070 N   0  0  0  0  0  0  0  0  0  0  0  0
   31.5570   44.5460    8.5510 C   0  0  0  0  0  0  0  0  0  0  0  0
   31.8950   43.2470    8.9730 N   0  0  0  0  0  0  0  0  0  0  0  0
   32.4470   45.4370    8.5900 O   0  0  0  0  0  0  0  0  0  0  0  0
   31.1780   42.5250    8.8840 H   0  0  0  0  0  0  0  0  0  0  0  0
   29.6080   43.9970    8.0030 H   0  0  0  0  0  0  0  0  0  0  0  0
   33.1500   42.8530    9.5110 C   0  0  1  0  0  0  0  0  0  0  0  0
   33.5750   41.5480    9.5390 C   0  0  0  0  0  0  0  0  0  0  0  0
   34.8220   41.5620   10.1250 C   0  0  0  0  0  0  0  0  0  0  0  0
   35.0790   42.7990   10.4080 O   0  0  0  0  0  0  0  0  0  0  0  0
   34.1250   43.5970   10.0640 N   0  0  0  0  0  0  0  0  0  0  0  0
   34.1120   44.6090   10.1900 H   0  0  0  0  0  0  0  0  0  0  0  0
   35.6380   40.3510   10.3520 C   0  0  0  0  0  0  0  0  0  0  0  0
   34.7000   39.1880   10.6460 C   0  0  0  0  0  0  0  0  0  0  0  0
   26.6920   52.7930    4.3380 N   0  0  0  0  0  0  0  0  0  0  0  0
   27.0910   53.6700    4.0040 H   0  0  0  0  0  0  0  0  0  0  0  0
   25.4170   52.4170    3.8420 C   0  0  2  0  0  0  0  0  0  0  0  0
   25.1100   52.3800    2.5290 N   0  0  0  0  0  0  0  0  0  0  0  0
   23.8820   52.0180    2.1070 C   0  0  2  0  0  0  0  0  0  0  0  0
   25.8210   52.6310    1.8420 H   0  0  0  0  0  0  0  0  0  0  0  0
   23.5390   51.9770    0.6460 C   0  0  0  0  0  0  0  0  0  0  0  0
   22.9140   51.6790    2.9800 N   0  0  0  0  0  0  0  0  0  0  0  0
   23.2060   51.7110    4.2870 C   0  0  0  0  0  0  0  0  0  0  0  0
   21.9870   51.4060    2.6560 H   0  0  0  0  0  0  0  0  0  0  0  0
   24.4540   52.0780    4.7450 C   0  0  0  0  0  0  0  0  0  0  0  0
   22.1780   51.3540    5.2320 N   0  0  0  0  0  0  0  0  0  0  0  0
   22.1760   51.9150    6.5550 C   0  0  0  0  0  0  0  0  0  0  0  0
   21.9070   50.8250    7.5610 C   0  0  0  0  0  0  0  0  0  0  0  0
   20.8120   49.9660    7.2190 N   0  0  0  0  0  0  0  0  0  0  0  0
   20.1760   50.2700    5.9630 C   0  0  0  0  0  0  0  0  0  0  0  0
   21.1380   50.4110    4.8240 C   0  0  0  0  0  0  0  0  0  0  0  0
   21.0420   48.5700    7.4410 C   0  0  0  0  0  0  0  0  0  0  0  0
   22.4960   48.1830    7.2940 C   0  0  0  0  0  0  0  0  0  0  0  0
   29.4051   51.4231    7.6392 H   0  0  0  0  0  0  0  0  0  0  0  0
   30.4297   48.5088    5.6003 H   0  0  0  0  0  0  0  0  0  0  0  0
   31.1480   46.2905    6.2462 H   0  0  0  0  0  0  0  0  0  0  0  0
   28.2596   46.1969    9.2553 H   0  0  0  0  0  0  0  0  0  0  0  0
   27.5057   48.4358    8.6346 H   0  0  0  0  0  0  0  0  0  0  0  0
   33.0632   40.7222    9.1910 H   0  0  0  0  0  0  0  0  0  0  0  0
   36.2924   40.5068   11.1841 H   0  0  0  0  0  0  0  0  0  0  0  0
   36.2282   40.1375    9.4855 H   0  0  0  0  0  0  0  0  0  0  0  0
   34.1152   39.4120   11.5136 H   0  0  0  0  0  0  0  0  0  0  0  0
   35.2742   38.3024   10.8218 H   0  0  0  0  0  0  0  0  0  0  0  0
   34.0516   39.0324    9.8092 H   0  0  0  0  0  0  0  0  0  0  0  0
   24.3932   52.2674    0.0708 H   0  0  0  0  0  0  0  0  0  0  0  0
   22.7313   52.6509    0.4502 H   0  0  0  0  0  0  0  0  0  0  0  0
   23.2480   50.9834    0.3757 H   0  0  0  0  0  0  0  0  0  0  0  0
   24.6558   52.0957    5.7569 H   0  0  0  0  0  0  0  0  0  0  0  0
   21.4127   52.6616    6.6250 H   0  0  0  0  0  0  0  0  0  0  0  0
   23.1283   52.3596    6.7560 H   0  0  0  0  0  0  0  0  0  0  0  0
   21.6916   51.2840    8.5033 H   0  0  0  0  0  0  0  0  0  0  0  0
   22.7823   50.2103    7.5892 H   0  0  0  0  0  0  0  0  0  0  0  0
   19.4902   49.4820    5.7313 H   0  0  0  0  0  0  0  0  0  0  0  0
   19.6859   51.2140    6.0792 H   0  0  0  0  0  0  0  0  0  0  0  0
   21.5761   49.4614    4.5978 H   0  0  0  0  0  0  0  0  0  0  0  0
   20.6332   50.7662    3.9500 H   0  0  0  0  0  0  0  0  0  0  0  0
   20.4668   48.0122    6.7319 H   0  0  0  0  0  0  0  0  0  0  0  0
   20.7520   48.3528    8.4478 H   0  0  0  0  0  0  0  0  0  0  0  0
   22.8203   48.3877    6.2951 H   0  0  0  0  0  0  0  0  0  0  0  0
   22.6097   47.1390    7.4990 H   0  0  0  0  0  0  0  0  0  0  0  0
   23.0871   48.7484    7.9838 H   0  0  0  0  0  0  0  0  0  0  0  0
  1  2  2  0  0  0  0
  1  7  1  0  0  0  0
  2 46  1  0  0  0  0
  3  4  1  0  0  0  0
  3  2  1  0  0  0  0
  5 27  1  6  0  0  0
  5  3  1  0  0  0  0
  6  5  1  0  0  0  0
  6  1  1  0  0  0  0
  7 12  2  0  0  0  0
  8  9  2  0  0  0  0
  8  7  1  0  0  0  0
  8 47  1  0  0  0  0
  9 10  1  0  0  0  0
  9 48  1  0  0  0  0
 10 13  1  0  0  0  0
 10 11  2  0  0  0  0
 11 49  1  0  0  0  0
 12 11  1  0  0  0  0
 12 50  1  0  0  0  0
 13 14  1  0  0  0  0
 14 16  2  0  0  0  0
 14 15  1  0  0  0  0
 17 15  1  0  0  0  0
 18 13  1  0  0  0  0
 19 15  1  6  0  0  0
 19 20  1  0  0  0  0
 19 23  1  0  0  0  0
 20 21  2  0  0  0  0
 20 51  1  0  0  0  0
 21 25  1  0  0  0  0
 21 22  1  0  0  0  0
 23 24  1  0  0  0  0
 23 22  1  0  0  0  0
 25 26  1  0  0  0  0
 25 52  1  0  0  0  0
 25 53  1  0  0  0  0
 26 54  1  0  0  0  0
 26 55  1  0  0  0  0
 26 56  1  0  0  0  0
 28 27  1  0  0  0  0
 29 27  1  1  0  0  0
 29 37  1  0  0  0  0
 30 29  1  0  0  0  0
 31 33  1  1  0  0  0
 31 30  1  0  0  0  0
 31 34  1  0  0  0  0
 32 30  1  0  0  0  0
 33 57  1  0  0  0  0
 33 58  1  0  0  0  0
 33 59  1  0  0  0  0
 34 35  1  0  0  0  0
 35 37  2  0  0  0  0
 35 38  1  0  0  0  0
 36 34  1  0  0  0  0
 37 60  1  0  0  0  0
 38 39  1  0  0  0  0
 39 40  1  0  0  0  0
 39 61  1  0  0  0  0
 39 62  1  0  0  0  0
 40 63  1  0  0  0  0
 40 64  1  0  0  0  0
 41 44  1  0  0  0  0
 41 40  1  0  0  0  0
 42 41  1  0  0  0  0
 42 65  1  0  0  0  0
 42 66  1  0  0  0  0
 43 38  1  0  0  0  0
 43 42  1  0  0  0  0
 43 67  1  0  0  0  0
 43 68  1  0  0  0  0
 44 69  1  0  0  0  0
 44 70  1  0  0  0  0
 45 44  1  0  0  0  0
 45 71  1  0  0  0  0
 45 72  1  0  0  0  0
 45 73  1  0  0  0  0
M  END
>  <REMARK>
 VINA RESULT:      -8.2      4.777     12.554
  8 active torsions:
  status: ('A' for Active; 'I' for Inactive)
    1  A    between atoms: C_2  and  C_3 
    2  A    between atoms: C_5  and  N_6 
       I    between atoms: N_6  and  C_8 
       I    between atoms: C_8  and  N_10 
    3  A    between atoms: N_10  and  C_12 
    4  A    between atoms: C_15  and  C_16 
    5  A    between atoms: C_20  and  N_21 
    6  A    between atoms: N_21  and  C_23 
    7  A    between atoms: C_30  and  N_31 
    8  A    between atoms: N_34  and  C_35 

>  <TORSDO>
F 8

$$$$
resistance_project/docking/5319283d3047ac55/Q9UM73_WT/docked/molecule_0012_out.pdbqt
 OpenBabel09232609203D

 73 77  0  0  1  0  0  0  0  0999 V2000
   31.7380   43.7520    8.7690 C   0  0  0  0  0  0  0  0  0  0  0  0
   32.2370   42.6240    8.5050 C   0  0  0  0  0  0  0  0  0  0  0  0
   33.5270   42.4110    8.5090 N   0  0  0  0  0  0  0  0  0  0  0  0
   33.8290   41.4630    8.2830 H   0  0  0  0  0  0  0  0  0  0  0  0
   34.3890   43.1960    8.7470 C   0  0  2  0  0  0  0  0  0  0  0  0
   33.3230   44.7440    9.0920 S   0  0  0  0  0  0  0  0  0  0  0  0
   30.4430   44.4350    8.8850 C   0  0  0  0  0  0  0  0  0  0  0  0
   30.2520   45.4940    7.9900 C   0  0  0  0  0  0  0  0  0  0  0  0
   29.0600   46.1880    8.0340 C   0  0  0  0  0  0  0  0  0  0  0  0
   28.0780   45.8420    8.9450 C   0  0  0  0  0  0  0  0  0  0  0  0
   28.2850   44.7960    9.8180 C   0  0  0  0  0  0  0  0  0  0  0  0
   29.4830   44.0690    9.8020 C   0  0  0  0  0  0  0  0  0  0  0  0
   26.8840   46.6140    8.9140 N   0  0  0  0  0  0  0  0  0  0  0  0
   26.7560   47.8090    8.1740 C   0  0  0  0  0  0  0  0  0  0  0  0
   25.4900   48.4170    8.0900 N   0  0  0  0  0  0  0  0  0  0  0  0
   27.7230   48.3590    7.5830 O   0  0  0  0  0  0  0  0  0  0  0  0
   24.7290   47.9870    8.6200 H   0  0  0  0  0  0  0  0  0  0  0  0
   26.0810   46.2880    9.4510 H   0  0  0  0  0  0  0  0  0  0  0  0
   25.1790   49.5780    7.3330 C   0  0  1  0  0  0  0  0  0  0  0  0
   24.1850   49.6110    6.3870 C   0  0  0  0  0  0  0  0  0  0  0  0
   24.1830   50.8900    5.8750 C   0  0  0  0  0  0  0  0  0  0  0  0
   25.1180   51.5340    6.4960 O   0  0  0  0  0  0  0  0  0  0  0  0
   25.7330   50.8040    7.3650 N   0  0  0  0  0  0  0  0  0  0  0  0
   26.5000   51.1030    7.9670 H   0  0  0  0  0  0  0  0  0  0  0  0
   23.2570   51.3510    4.8190 C   0  0  0  0  0  0  0  0  0  0  0  0
   22.3370   50.1950    4.4490 C   0  0  0  0  0  0  0  0  0  0  0  0
   35.8010   43.3230    8.8410 N   0  0  0  0  0  0  0  0  0  0  0  0
   36.2860   42.7490    9.5310 H   0  0  0  0  0  0  0  0  0  0  0  0
   36.5850   44.1940    8.0410 C   0  0  2  0  0  0  0  0  0  0  0  0
   37.8910   44.4420    8.2690 N   0  0  0  0  0  0  0  0  0  0  0  0
   38.5930   45.2800    7.4800 C   0  0  2  0  0  0  0  0  0  0  0  0
   38.3570   43.9850    9.0530 H   0  0  0  0  0  0  0  0  0  0  0  0
   40.0470   45.5570    7.7330 C   0  0  0  0  0  0  0  0  0  0  0  0
   38.0170   45.9040    6.4350 N   0  0  0  0  0  0  0  0  0  0  0  0
   36.7200   45.6660    6.1970 C   0  0  0  0  0  0  0  0  0  0  0  0
   38.5520   46.5380    5.8420 H   0  0  0  0  0  0  0  0  0  0  0  0
   35.9790   44.8130    6.9880 C   0  0  0  0  0  0  0  0  0  0  0  0
   36.0910   46.3310    5.0830 N   0  0  0  0  0  0  0  0  0  0  0  0
   35.8820   45.6350    3.8430 C   0  0  0  0  0  0  0  0  0  0  0  0
   36.2840   46.5260    2.6950 C   0  0  0  0  0  0  0  0  0  0  0  0
   35.7780   47.8640    2.7820 N   0  0  0  0  0  0  0  0  0  0  0  0
   34.9980   48.1370    3.9620 C   0  0  0  0  0  0  0  0  0  0  0  0
   35.6700   47.7220    5.2340 C   0  0  0  0  0  0  0  0  0  0  0  0
   36.7140   48.8920    2.4430 C   0  0  0  0  0  0  0  0  0  0  0  0
   37.4660   48.6020    1.1620 C   0  0  0  0  0  0  0  0  0  0  0  0
   31.6043   41.8411    8.2777 H   0  0  0  0  0  0  0  0  0  0  0  0
   30.9866   45.7503    7.3119 H   0  0  0  0  0  0  0  0  0  0  0  0
   28.8998   46.9716    7.3819 H   0  0  0  0  0  0  0  0  0  0  0  0
   27.5467   44.5443   10.4937 H   0  0  0  0  0  0  0  0  0  0  0  0
   29.6405   43.2858   10.4553 H   0  0  0  0  0  0  0  0  0  0  0  0
   23.5637   48.8335    6.1140 H   0  0  0  0  0  0  0  0  0  0  0  0
   22.6763   52.1735    5.1813 H   0  0  0  0  0  0  0  0  0  0  0  0
   23.8088   51.6715    3.9601 H   0  0  0  0  0  0  0  0  0  0  0  0
   21.7907   49.8829    5.3145 H   0  0  0  0  0  0  0  0  0  0  0  0
   22.9215   49.3773    4.0821 H   0  0  0  0  0  0  0  0  0  0  0  0
   21.6524   50.5127    3.6905 H   0  0  0  0  0  0  0  0  0  0  0  0
   40.4124   46.2437    6.9982 H   0  0  0  0  0  0  0  0  0  0  0  0
   40.5999   44.6429    7.6731 H   0  0  0  0  0  0  0  0  0  0  0  0
   40.1648   45.9818    8.7080 H   0  0  0  0  0  0  0  0  0  0  0  0
   34.9809   44.6458    6.7859 H   0  0  0  0  0  0  0  0  0  0  0  0
   36.4755   44.7448    3.8288 H   0  0  0  0  0  0  0  0  0  0  0  0
   34.8484   45.3749    3.7488 H   0  0  0  0  0  0  0  0  0  0  0  0
   37.3526   46.5730    2.6655 H   0  0  0  0  0  0  0  0  0  0  0  0
   35.8623   46.0957    1.8108 H   0  0  0  0  0  0  0  0  0  0  0  0
   34.0695   47.6112    3.8828 H   0  0  0  0  0  0  0  0  0  0  0  0
   34.8625   49.1973    4.0102 H   0  0  0  0  0  0  0  0  0  0  0  0
   34.9859   47.8086    6.0522 H   0  0  0  0  0  0  0  0  0  0  0  0
   36.5142   48.3487    5.4326 H   0  0  0  0  0  0  0  0  0  0  0  0
   36.1824   49.8132    2.3262 H   0  0  0  0  0  0  0  0  0  0  0  0
   37.4332   48.9459    3.2334 H   0  0  0  0  0  0  0  0  0  0  0  0
   36.7740   48.5414    0.3481 H   0  0  0  0  0  0  0  0  0  0  0  0
   37.9872   47.6724    1.2570 H   0  0  0  0  0  0  0  0  0  0  0  0
   38.1684   49.3872    0.9752 H   0  0  0  0  0  0  0  0  0  0  0  0
  1  7  1  0  0  0  0
  1  6  1  0  0  0  0
  2  3  1  0  0  0  0
  2  1  2  0  0  0  0
  2 46  1  0  0  0  0
  3  5  1  0  0  0  0
  4  3  1  0  0  0  0
  5 27  1  6  0  0  0
  5  6  1  0  0  0  0
  7 12  2  0  0  0  0
  8  9  2  0  0  0  0
  8  7  1  0  0  0  0
  8 47  1  0  0  0  0
  9 10  1  0  0  0  0
  9 48  1  0  0  0  0
 10 11  2  0  0  0  0
 11 49  1  0  0  0  0
 12 11  1  0  0  0  0
 12 50  1  0  0  0  0
 13 10  1  0  0  0  0
 13 18  1  0  0  0  0
 14 13  1  0  0  0  0
 15 14  1  0  0  0  0
 15 17  1  0  0  0  0
 16 14  2  0  0  0  0
 19 23  1  0  0  0  0
 19 15  1  1  0  0  0
 20 19  1  0  0  0  0
 20 51  1  0  0  0  0
 21 20  2  0  0  0  0
 21 22  1  0  0  0  0
 22 23  1  0  0  0  0
 23 24  1  0  0  0  0
 25 21  1  0  0  0  0
 25 52  1  0  0  0  0
 25 53  1  0  0  0  0
 26 25  1  0  0  0  0
 26 54  1  0  0  0  0
 26 55  1  0  0  0  0
 26 56  1  0  0  0  0
 27 28  1  0  0  0  0
 29 30  1  0  0  0  0
 29 27  1  1  0  0  0
 30 32  1  0  0  0  0
 31 33  1  1  0  0  0
 31 30  1  0  0  0  0
 33 57  1  0  0  0  0
 33 58  1  0  0  0  0
 33 59  1  0  0  0  0
 34 31  1  0  0  0  0
 35 34  1  0  0  0  0
 35 37  2  0  0  0  0
 36 34  1  0  0  0  0
 37 29  1  0  0  0  0
 37 60  1  0  0  0  0
 38 43  1  0  0  0  0
 38 35  1  0  0  0  0
 39 38  1  0  0  0  0
 39 61  1  0  0  0  0
 39 62  1  0  0  0  0
 40 41  1  0  0  0  0
 40 39  1  0  0  0  0
 40 63  1  0  0  0  0
 40 64  1  0  0  0  0
 41 42  1  0  0  0  0
 42 43  1  0  0  0  0
 42 65  1  0  0  0  0
 42 66  1  0  0  0  0
 43 67  1  0  0  0  0
 43 68  1  0  0  0  0
 44 41  1  0  0  0  0
 44 69  1  0  0  0  0
 44 70  1  0  0  0  0
 45 44  1  0  0  0  0
 45 71  1  0  0  0  0
 45 72  1  0  0  0  0
 45 73  1  0  0  0  0
M  END
>  <REMARK>
 VINA RESULT:      -8.1      1.990      2.189
  8 active torsions:
  status: ('A' for Active; 'I' for Inactive)
    1  A    between atoms: C_2  and  C_3 
    2  A    between atoms: C_5  and  N_6 
       I    between atoms: N_6  and  C_8 
       I    between atoms: C_8  and  N_10 
    3  A    between atoms: N_10  and  C_12 
    4  A    between atoms: C_15  and  C_16 
    5  A    between atoms: C_20  and  N_21 
    6  A    between atoms: N_21  and  C_23 
    7  A    between atoms: C_30  and  N_31 
    8  A    between atoms: N_34  and  C_35 

>  <TORSDO>
F 8

$$$$
resistance_project/docking/5319283d3047ac55/Q9UM73_WT/docked/molecule_0012_out.pdbqt
 OpenBabel09232609203D

 73 77  0  0  1  0  0  0  0  0999 V2000
   32.6570   48.1770    6.0130 C   0  0  0  0  0  0  0  0  0  0  0  0
   33.2940   48.2330    4.9260 C   0  0  0  0  0  0  0  0  0  0  0  0
   34.5740   47.9730    4.8510 N   0  0  0  0  0  0  0  0  0  0  0  0
   34.9970   48.0460    3.9260 H   0  0  0  0  0  0  0  0  0  0  0  0
   35.3010   47.6610    5.7400 C   0  0  2  0  0  0  0  0  0  0  0  0
   34.0560   47.6700    7.1890 S   0  0  0  0  0  0  0  0  0  0  0  0
   31.3080   48.3660    6.5620 C   0  0  0  0  0  0  0  0  0  0  0  0
   30.5670   47.1900    6.7270 C   0  0  0  0  0  0  0  0  0  0  0  0
   29.2890   47.2830    7.2390 C   0  0  0  0  0  0  0  0  0  0  0  0
   28.7550   48.5110    7.5810 C   0  0  0  0  0  0  0  0  0  0  0  0
   29.5000   49.6590    7.4110 C   0  0  0  0  0  0  0  0  0  0  0  0
   30.8010   49.6030    6.8930 C   0  0  0  0  0  0  0  0  0  0  0  0
   27.4310   48.5050    8.1010 N   0  0  0  0  0  0  0  0  0  0  0  0
   26.3070   48.9250    7.3580 C   0  0  0  0  0  0  0  0  0  0  0  0
   25.0270   48.7390    7.9120 N   0  0  0  0  0  0  0  0  0  0  0  0
   26.3950   49.4580    6.2210 O   0  0  0  0  0  0  0  0  0  0  0  0
   24.9770   48.3550    8.8570 H   0  0  0  0  0  0  0  0  0  0  0  0
   27.2870   48.1810    9.0570 H   0  0  0  0  0  0  0  0  0  0  0  0
   23.7960   49.0410    7.2680 C   0  0  1  0  0  0  0  0  0  0  0  0
   22.5770   48.6630    7.7710 C   0  0  0  0  0  0  0  0  0  0  0  0
   21.6330   49.1310    6.8830 C   0  0  0  0  0  0  0  0  0  0  0  0
   22.2840   49.7350    5.9420 O   0  0  0  0  0  0  0  0  0  0  0  0
   23.5610   49.7100    6.1240 N   0  0  0  0  0  0  0  0  0  0  0  0
   24.2660   50.1210    5.5120 H   0  0  0  0  0  0  0  0  0  0  0  0
   20.1770   48.9340    7.0510 C   0  0  0  0  0  0  0  0  0  0  0  0
   19.9370   48.2450    8.3870 C   0  0  0  0  0  0  0  0  0  0  0  0
   36.6530   47.3250    6.0230 N   0  0  0  0  0  0  0  0  0  0  0  0
   37.3810   47.9560    5.6870 H   0  0  0  0  0  0  0  0  0  0  0  0
   37.0610   46.1700    6.7400 C   0  0  2  0  0  0  0  0  0  0  0  0
   38.3080   45.6580    6.6800 N   0  0  0  0  0  0  0  0  0  0  0  0
   38.6460   44.5570    7.3790 C   0  0  1  0  0  0  0  0  0  0  0  0
   39.0070   46.1130    6.0940 H   0  0  0  0  0  0  0  0  0  0  0  0
   40.0330   43.9850    7.3140 C   0  0  0  0  0  0  0  0  0  0  0  0
   37.7540   43.9250    8.1650 N   0  0  0  0  0  0  0  0  0  0  0  0
   36.5120   44.4240    8.2340 C   0  0  0  0  0  0  0  0  0  0  0  0
   38.0150   43.0920    8.6920 H   0  0  0  0  0  0  0  0  0  0  0  0
   36.1390   45.5490    7.5290 C   0  0  0  0  0  0  0  0  0  0  0  0
   35.5460   43.7540    9.0690 N   0  0  0  0  0  0  0  0  0  0  0  0
   35.2930   42.3490    8.9080 C   0  0  0  0  0  0  0  0  0  0  0  0
   33.8060   42.1020    8.9260 C   0  0  0  0  0  0  0  0  0  0  0  0
   33.1110   42.7700    9.9870 N   0  0  0  0  0  0  0  0  0  0  0  0
   33.9440   43.5830   10.8350 C   0  0  0  0  0  0  0  0  0  0  0  0
   34.8260   44.5280   10.0780 C   0  0  0  0  0  0  0  0  0  0  0  0
   31.8730   43.3830    9.6120 C   0  0  0  0  0  0  0  0  0  0  0  0
   31.7710   43.6390    8.1250 C   0  0  0  0  0  0  0  0  0  0  0  0
   32.7877   48.4931    4.0652 H   0  0  0  0  0  0  0  0  0  0  0  0
   30.9675   46.2739    6.4714 H   0  0  0  0  0  0  0  0  0  0  0  0
   28.7265   46.4274    7.3678 H   0  0  0  0  0  0  0  0  0  0  0  0
   29.0938   50.5720    7.6688 H   0  0  0  0  0  0  0  0  0  0  0  0
   31.3607   50.4604    6.7638 H   0  0  0  0  0  0  0  0  0  0  0  0
   22.4021   48.1343    8.6399 H   0  0  0  0  0  0  0  0  0  0  0  0
   19.8008   48.3236    6.2568 H   0  0  0  0  0  0  0  0  0  0  0  0
   19.6730   49.8776    7.0279 H   0  0  0  0  0  0  0  0  0  0  0  0
   20.4450   47.3034    8.3990 H   0  0  0  0  0  0  0  0  0  0  0  0
   18.8877   48.0859    8.5228 H   0  0  0  0  0  0  0  0  0  0  0  0
   20.3096   48.8614    9.1782 H   0  0  0  0  0  0  0  0  0  0  0  0
   40.6339   44.5801    6.6585 H   0  0  0  0  0  0  0  0  0  0  0  0
   39.9882   42.9819    6.9444 H   0  0  0  0  0  0  0  0  0  0  0  0
   40.4652   43.9855    8.2928 H   0  0  0  0  0  0  0  0  0  0  0  0
   35.1766   45.9152    7.5977 H   0  0  0  0  0  0  0  0  0  0  0  0
   35.6985   42.0180    7.9747 H   0  0  0  0  0  0  0  0  0  0  0  0
   35.7544   41.8090    9.7083 H   0  0  0  0  0  0  0  0  0  0  0  0
   33.6421   41.0496    9.0282 H   0  0  0  0  0  0  0  0  0  0  0  0
   33.4184   42.4955    8.0096 H   0  0  0  0  0  0  0  0  0  0  0  0
   34.5639   42.9368   11.4206 H   0  0  0  0  0  0  0  0  0  0  0  0
   33.2917   44.1777   11.4398 H   0  0  0  0  0  0  0  0  0  0  0  0
   34.2313   45.2805    9.6038 H   0  0  0  0  0  0  0  0  0  0  0  0
   35.5137   45.0103   10.7408 H   0  0  0  0  0  0  0  0  0  0  0  0
   31.0704   42.7382    9.9035 H   0  0  0  0  0  0  0  0  0  0  0  0
   31.8209   44.3308   10.1058 H   0  0  0  0  0  0  0  0  0  0  0  0
   31.8199   42.7086    7.5987 H   0  0  0  0  0  0  0  0  0  0  0  0
   32.5799   44.2671    7.8149 H   0  0  0  0  0  0  0  0  0  0  0  0
   30.8411   44.1224    7.9093 H   0  0  0  0  0  0  0  0  0  0  0  0
  1  7  1  0  0  0  0
  1  6  1  0  0  0  0
  2  1  2  0  0  0  0
  2 46  1  0  0  0  0
  3  2  1  0  0  0  0
  3  5  1  0  0  0  0
  4  3  1  0  0  0  0
  5 27  1  1  0  0  0
  5  6  1  0  0  0  0
  7  8  2  0  0  0  0
  7 12  1  0  0  0  0
  8  9  1  0  0  0  0
  8 47  1  0  0  0  0
  9 10  2  0  0  0  0
  9 48  1  0  0  0  0
 10 13  1  0  0  0  0
 11 10  1  0  0  0  0
 11 49  1  0  0  0  0
 12 11  2  0  0  0  0
 12 50  1  0  0  0  0
 13 18  1  0  0  0  0
 14 15  1  0  0  0  0
 14 13  1  0  0  0  0
 15 17  1  0  0  0  0
 16 14  2  0  0  0  0
 19 20  1  0  0  0  0
 19 15  1  1  0  0  0
 20 51  1  0  0  0  0
 21 25  1  0  0  0  0
 21 20  2  0  0  0  0
 22 23  1  0  0  0  0
 22 21  1  0  0  0  0
 23 19  1  0  0  0  0
 24 23  1  0  0  0  0
 25 26  1  0  0  0  0
 25 52  1  0  0  0  0
 25 53  1  0  0  0  0
 26 54  1  0  0  0  0
 26 55  1  0  0  0  0
 26 56  1  0  0  0  0
 28 27  1  0  0  0  0
 29 27  1  6  0  0  0
 29 37  1  0  0  0  0
 30 29  1  0  0  0  0
 30 31  1  0  0  0  0
 31 33  1  1  0  0  0
 31 34  1  0  0  0  0
 32 30  1  0  0  0  0
 33 57  1  0  0  0  0
 33 58  1  0  0  0  0
 33 59  1  0  0  0  0
 34 35  1  0  0  0  0
 34 36  1  0  0  0  0
 35 38  1  0  0  0  0
 37 35  2  0  0  0  0
 37 60  1  0  0  0  0
 38 43  1  0  0  0  0
 39 40  1  0  0  0  0
 39 38  1  0  0  0  0
 39 61  1  0  0  0  0
 39 62  1  0  0  0  0
 40 41  1  0  0  0  0
 40 63  1  0  0  0  0
 40 64  1  0  0  0  0
 41 42  1  0  0  0  0
 42 65  1  0  0  0  0
 42 66  1  0  0  0  0
 43 42  1  0  0  0  0
 43 67  1  0  0  0  0
 43 68  1  0  0  0  0
 44 41  1  0  0  0  0
 44 69  1  0  0  0  0
 44 70  1  0  0  0  0
 45 44  1  0  0  0  0
 45 71  1  0  0  0  0
 45 72  1  0  0  0  0
 45 73  1  0  0  0  0
M  END
>  <REMARK>
 VINA RESULT:      -8.1      2.271      4.809
  8 active torsions:
  status: ('A' for Active; 'I' for Inactive)
    1  A    between atoms: C_2  and  C_3 
    2  A    between atoms: C_5  and  N_6 
       I    between atoms: N_6  and  C_8 
       I    between atoms: C_8  and  N_10 
    3  A    between atoms: N_10  and  C_12 
    4  A    between atoms: C_15  and  C_16 
    5  A    between atoms: C_20  and  N_21 
    6  A    between atoms: N_21  and  C_23 
    7  A    between atoms: C_30  and  N_31 
    8  A    between atoms: N_34  and  C_35 

>  <TORSDO>
F 8

$$$$
resistance_project/docking/5319283d3047ac55/Q9UM73_WT/docked/molecule_0012_out.pdbqt
 OpenBabel09232609203D

 73 77  0  0  1  0  0  0  0  0999 V2000
   30.0450   46.2760    8.1280 C   0  0  0  0  0  0  0  0  0  0  0  0
   29.5680   45.4210    8.9220 C   0  0  0  0  0  0  0  0  0  0  0  0
   30.0740   44.2210    9.0460 N   0  0  0  0  0  0  0  0  0  0  0  0
   29.6160   43.6040    9.7170 H   0  0  0  0  0  0  0  0  0  0  0  0
   31.0090   43.7680    8.4670 C   0  0  2  0  0  0  0  0  0  0  0  0
   31.4740   45.2730    7.3840 S   0  0  0  0  0  0  0  0  0  0  0  0
   29.8400   47.6560    7.6690 C   0  0  0  0  0  0  0  0  0  0  0  0
   30.9530   48.4950    7.8010 C   0  0  0  0  0  0  0  0  0  0  0  0
   30.8410   49.8080    7.3910 C   0  0  0  0  0  0  0  0  0  0  0  0
   29.6550   50.2820    6.8630 C   0  0  0  0  0  0  0  0  0  0  0  0
   28.5690   49.4410    6.7410 C   0  0  0  0  0  0  0  0  0  0  0  0
   28.6460   48.1020    7.1460 C   0  0  0  0  0  0  0  0  0  0  0  0
   29.6370   51.6490    6.4680 N   0  0  0  0  0  0  0  0  0  0  0  0
   28.5980   52.5380    6.8120 C   0  0  0  0  0  0  0  0  0  0  0  0
   28.7480   53.9020    6.5010 N   0  0  0  0  0  0  0  0  0  0  0  0
   27.5390   52.1700    7.3860 O   0  0  0  0  0  0  0  0  0  0  0  0
   29.5880   54.1740    5.9870 H   0  0  0  0  0  0  0  0  0  0  0  0
   30.4150   52.0030    5.9110 H   0  0  0  0  0  0  0  0  0  0  0  0
   27.8310   54.9330    6.8390 C   0  0  1  0  0  0  0  0  0  0  0  0
   27.6900   55.4210    8.1130 C   0  0  0  0  0  0  0  0  0  0  0  0
   26.7210   56.3990    8.0470 C   0  0  0  0  0  0  0  0  0  0  0  0
   26.3420   56.4540    6.8100 O   0  0  0  0  0  0  0  0  0  0  0  0
   26.9680   55.6110    6.0590 N   0  0  0  0  0  0  0  0  0  0  0  0
   26.8320   55.4810    5.0570 H   0  0  0  0  0  0  0  0  0  0  0  0
   26.2620   57.1820    9.2130 C   0  0  0  0  0  0  0  0  0  0  0  0
   26.0970   56.2340   10.3930 C   0  0  0  0  0  0  0  0  0  0  0  0
   31.7940   42.5900    8.3440 N   0  0  0  0  0  0  0  0  0  0  0  0
   31.3370   41.7480    7.9940 H   0  0  0  0  0  0  0  0  0  0  0  0
   33.1710   42.5030    8.6750 C   0  0  2  0  0  0  0  0  0  0  0  0
   33.7110   41.4680    9.3520 N   0  0  0  0  0  0  0  0  0  0  0  0
   35.0260   41.4330    9.6440 C   0  0  2  0  0  0  0  0  0  0  0  0
   33.1120   40.6980    9.6480 H   0  0  0  0  0  0  0  0  0  0  0  0
   35.6280   40.2820   10.3990 C   0  0  0  0  0  0  0  0  0  0  0  0
   35.8530   42.4290    9.2720 N   0  0  0  0  0  0  0  0  0  0  0  0
   35.3300   43.4620    8.5990 C   0  0  0  0  0  0  0  0  0  0  0  0
   36.8470   42.3970    9.4960 H   0  0  0  0  0  0  0  0  0  0  0  0
   33.9880   43.5230    8.2860 C   0  0  0  0  0  0  0  0  0  0  0  0
   36.2040   44.5360    8.1970 N   0  0  0  0  0  0  0  0  0  0  0  0
   36.3720   45.6910    9.0360 C   0  0  0  0  0  0  0  0  0  0  0  0
   36.3020   46.9380    8.1910 C   0  0  0  0  0  0  0  0  0  0  0  0
   37.0900   46.8840    6.9950 N   0  0  0  0  0  0  0  0  0  0  0  0
   37.7880   45.6410    6.7890 C   0  0  0  0  0  0  0  0  0  0  0  0
   36.9130   44.4340    6.9240 C   0  0  0  0  0  0  0  0  0  0  0  0
   36.4530   47.4040    5.8240 C   0  0  0  0  0  0  0  0  0  0  0  0
   35.0160   46.9510    5.6860 C   0  0  0  0  0  0  0  0  0  0  0  0
   28.7487   45.6769    9.4949 H   0  0  0  0  0  0  0  0  0  0  0  0
   31.8376   48.1395    8.1961 H   0  0  0  0  0  0  0  0  0  0  0  0
   31.6505   50.4419    7.4795 H   0  0  0  0  0  0  0  0  0  0  0  0
   27.6871   49.8030    6.3458 H   0  0  0  0  0  0  0  0  0  0  0  0
   27.8349   47.4704    7.0555 H   0  0  0  0  0  0  0  0  0  0  0  0
   28.2063   55.1167    8.9532 H   0  0  0  0  0  0  0  0  0  0  0  0
   25.3248   57.6475    8.9895 H   0  0  0  0  0  0  0  0  0  0  0  0
   26.9763   57.9428    9.4494 H   0  0  0  0  0  0  0  0  0  0  0  0
   25.3812   55.4780   10.1458 H   0  0  0  0  0  0  0  0  0  0  0  0
   25.7562   56.7825   11.2462 H   0  0  0  0  0  0  0  0  0  0  0  0
   27.0376   55.7753   10.6162 H   0  0  0  0  0  0  0  0  0  0  0  0
   36.6774   40.4484   10.5257 H   0  0  0  0  0  0  0  0  0  0  0  0
   35.4741   39.3762    9.8506 H   0  0  0  0  0  0  0  0  0  0  0  0
   35.1613   40.2017   11.3585 H   0  0  0  0  0  0  0  0  0  0  0  0
   33.6079   44.3287    7.7651 H   0  0  0  0  0  0  0  0  0  0  0  0
   35.5952   45.7140    9.7715 H   0  0  0  0  0  0  0  0  0  0  0  0
   37.3229   45.6429    9.5243 H   0  0  0  0  0  0  0  0  0  0  0  0
   35.2812   47.0977    7.9130 H   0  0  0  0  0  0  0  0  0  0  0  0
   36.7001   47.7339    8.7851 H   0  0  0  0  0  0  0  0  0  0  0  0
   38.2067   45.6471    5.8043 H   0  0  0  0  0  0  0  0  0  0  0  0
   38.5379   45.5720    7.5491 H   0  0  0  0  0  0  0  0  0  0  0  0
   37.5117   43.5472    6.9109 H   0  0  0  0  0  0  0  0  0  0  0  0
   36.2178   44.3839    6.1122 H   0  0  0  0  0  0  0  0  0  0  0  0
   36.4711   48.4728    5.8714 H   0  0  0  0  0  0  0  0  0  0  0  0
   36.9895   47.0343    4.9752 H   0  0  0  0  0  0  0  0  0  0  0  0
   34.4487   47.3048    6.5214 H   0  0  0  0  0  0  0  0  0  0  0  0
   34.9802   45.8820    5.6576 H   0  0  0  0  0  0  0  0  0  0  0  0
   34.6029   47.3459    4.7814 H   0  0  0  0  0  0  0  0  0  0  0  0
  1  2  2  0  0  0  0
  2  3  1  0  0  0  0
  2 46  1  0  0  0  0
  3  4  1  0  0  0  0
  5 27  1  6  0  0  0
  5  3  1  0  0  0  0
  6  1  1  0  0  0  0
  6  5  1  0  0  0  0
  7  8  1  0  0  0  0
  7  1  1  0  0  0  0
  8 47  1  0  0  0  0
  9  8  2  0  0  0  0
  9 48  1  0  0  0  0
 10  9  1  0  0  0  0
 11 10  2  0  0  0  0
 11 12  1  0  0  0  0
 11 49  1  0  0  0  0
 12  7  2  0  0  0  0
 12 50  1  0  0  0  0
 13 14  1  0  0  0  0
 13 10  1  0  0  0  0
 14 16  2  0  0  0  0
 15 14  1  0  0  0  0
 17 15  1  0  0  0  0
 18 13  1  0  0  0  0
 19 15  1  6  0  0  0
 19 20  1  0  0  0  0
 20 51  1  0  0  0  0
 21 20  2  0  0  0  0
 21 25  1  0  0  0  0
 22 21  1  0  0  0  0
 23 22  1  0  0  0  0
 23 19  1  0  0  0  0
 24 23  1  0  0  0  0
 25 26  1  0  0  0  0
 25 52  1  0  0  0  0
 25 53  1  0  0  0  0
 26 54  1  0  0  0  0
 26 55  1  0  0  0  0
 26 56  1  0  0  0  0
 28 27  1  0  0  0  0
 29 27  1  1  0  0  0
 29 30  1  0  0  0  0
 30 31  1  0  0  0  0
 30 32  1  0  0  0  0
 31 33  1  1  0  0  0
 33 57  1  0  0  0  0
 33 58  1  0  0  0  0
 33 59  1  0  0  0  0
 34 36  1  0  0  0  0
 34 31  1  0  0  0  0
 35 34  1  0  0  0  0
 37 35  2  0  0  0  0
 37 29  1  0  0  0  0
 37 60  1  0  0  0  0
 38 35  1  0  0  0  0
 38 39  1  0  0  0  0
 39 61  1  0  0  0  0
 39 62  1  0  0  0  0
 40 39  1  0  0  0  0
 40 63  1  0  0  0  0
 40 64  1  0  0  0  0
 41 40  1  0  0  0  0
 42 43  1  0  0  0  0
 42 41  1  0  0  0  0
 42 65  1  0  0  0  0
 42 66  1  0  0  0  0
 43 38  1  0  0  0  0
 43 67  1  0  0  0  0
 43 68  1  0  0  0  0
 44 41  1  0  0  0  0
 44 69  1  0  0  0  0
 44 70  1  0  0  0  0
 45 44  1  0  0  0  0
 45 71  1  0  0  0  0
 45 72  1  0  0  0  0
 45 73  1  0  0  0  0
M  END
>  <REMARK>
 VINA RESULT:      -8.1      3.607      5.083
  8 active torsions:
  status: ('A' for Active; 'I' for Inactive)
    1  A    between atoms: C_2  and  C_3 
    2  A    between atoms: C_5  and  N_6 
       I    between atoms: N_6  and  C_8 
       I    between atoms: C_8  and  N_10 
    3  A    between atoms: N_10  and  C_12 
    4  A    between atoms: C_15  and  C_16 
    5  A    between atoms: C_20  and  N_21 
    6  A    between atoms: N_21  and  C_23 
    7  A    between atoms: C_30  and  N_31 
    8  A    between atoms: N_34  and  C_35 

>  <TORSDO>
F 8

$$$$
resistance_project/docking/5319283d3047ac55/Q9UM73_WT/docked/molecule_0012_out.pdbqt
 OpenBabel09232609203D

 73 77  0  0  1  0  0  0  0  0999 V2000
   31.7220   44.0120    8.9830 C   0  0  0  0  0  0  0  0  0  0  0  0
   32.3930   43.0740    9.4940 C   0  0  0  0  0  0  0  0  0  0  0  0
   33.6290   42.8280    9.1470 N   0  0  0  0  0  0  0  0  0  0  0  0
   34.0850   42.0480    9.6200 H   0  0  0  0  0  0  0  0  0  0  0  0
   34.2840   43.4120    8.3420 C   0  0  2  0  0  0  0  0  0  0  0  0
   33.0090   44.7210    7.7820 S   0  0  0  0  0  0  0  0  0  0  0  0
   30.3940   44.6370    9.0430 C   0  0  0  0  0  0  0  0  0  0  0  0
   30.1890   45.6760    8.1280 C   0  0  0  0  0  0  0  0  0  0  0  0
   28.9660   46.3160    8.1200 C   0  0  0  0  0  0  0  0  0  0  0  0
   27.9680   45.9370    8.9980 C   0  0  0  0  0  0  0  0  0  0  0  0
   28.1890   44.9110    9.8920 C   0  0  0  0  0  0  0  0  0  0  0  0
   29.4180   44.2390    9.9290 C   0  0  0  0  0  0  0  0  0  0  0  0
   26.7430   46.6550    8.9130 N   0  0  0  0  0  0  0  0  0  0  0  0
   26.5720   47.7990    8.1060 C   0  0  0  0  0  0  0  0  0  0  0  0
   25.2830   48.3460    7.9770 N   0  0  0  0  0  0  0  0  0  0  0  0
   27.5210   48.3560    7.4920 O   0  0  0  0  0  0  0  0  0  0  0  0
   24.5350   47.9150    8.5240 H   0  0  0  0  0  0  0  0  0  0  0  0
   25.9490   46.3260    9.4620 H   0  0  0  0  0  0  0  0  0  0  0  0
   24.9310   49.4490    7.1530 C   0  0  1  0  0  0  0  0  0  0  0  0
   24.5660   49.3120    5.8370 C   0  0  0  0  0  0  0  0  0  0  0  0
   24.3000   50.5830    5.3770 C   0  0  0  0  0  0  0  0  0  0  0  0
   24.5030   51.3830    6.3740 O   0  0  0  0  0  0  0  0  0  0  0  0
   24.8750   50.7610    7.4430 N   0  0  0  0  0  0  0  0  0  0  0  0
   25.0890   51.1880    8.3440 H   0  0  0  0  0  0  0  0  0  0  0  0
   23.8730   50.8850    3.9940 C   0  0  0  0  0  0  0  0  0  0  0  0
   25.0260   51.5710    3.2740 C   0  0  0  0  0  0  0  0  0  0  0  0
   35.5700   43.4320    7.7380 N   0  0  0  0  0  0  0  0  0  0  0  0
   36.2890   42.8230    8.1290 H   0  0  0  0  0  0  0  0  0  0  0  0
   35.9250   44.2410    6.6280 C   0  0  1  0  0  0  0  0  0  0  0  0
   35.5740   43.9580    5.3570 N   0  0  0  0  0  0  0  0  0  0  0  0
   35.9370   44.7590    4.3360 C   0  0  2  0  0  0  0  0  0  0  0  0
   35.0230   43.1210    5.1650 H   0  0  0  0  0  0  0  0  0  0  0  0
   35.5480   44.4440    2.9200 C   0  0  0  0  0  0  0  0  0  0  0  0
   36.6640   45.8730    4.5440 N   0  0  0  0  0  0  0  0  0  0  0  0
   37.0190   46.1670    5.8020 C   0  0  0  0  0  0  0  0  0  0  0  0
   36.9370   46.4760    3.7680 H   0  0  0  0  0  0  0  0  0  0  0  0
   36.6600   45.3650    6.8660 C   0  0  0  0  0  0  0  0  0  0  0  0
   37.8000   47.3550    6.0390 N   0  0  0  0  0  0  0  0  0  0  0  0
   38.5110   47.5260    7.2760 C   0  0  0  0  0  0  0  0  0  0  0  0
   38.2950   48.9270    7.7880 C   0  0  0  0  0  0  0  0  0  0  0  0
   38.4610   49.9490    6.7980 N   0  0  0  0  0  0  0  0  0  0  0  0
   38.7760   49.4640    5.4790 C   0  0  0  0  0  0  0  0  0  0  0  0
   37.8560   48.3840    5.0020 C   0  0  0  0  0  0  0  0  0  0  0  0
   37.4770   50.9880    6.8250 C   0  0  0  0  0  0  0  0  0  0  0  0
   37.7980   52.0760    7.8250 C   0  0  0  0  0  0  0  0  0  0  0  0
   31.9502   42.4794   10.2119 H   0  0  0  0  0  0  0  0  0  0  0  0
   30.9358   45.9575    7.4737 H   0  0  0  0  0  0  0  0  0  0  0  0
   28.7953   47.0843    7.4525 H   0  0  0  0  0  0  0  0  0  0  0  0
   27.4382   44.6338   10.5435 H   0  0  0  0  0  0  0  0  0  0  0  0
   29.5861   43.4714   10.5980 H   0  0  0  0  0  0  0  0  0  0  0  0
   24.5034   48.4331    5.2998 H   0  0  0  0  0  0  0  0  0  0  0  0
   23.6197   49.9771    3.4876 H   0  0  0  0  0  0  0  0  0  0  0  0
   23.0146   51.5237    4.0054 H   0  0  0  0  0  0  0  0  0  0  0  0
   25.8783   50.9242    3.2684 H   0  0  0  0  0  0  0  0  0  0  0  0
   25.2720   52.4808    3.7806 H   0  0  0  0  0  0  0  0  0  0  0  0
   24.7379   51.7901    2.2671 H   0  0  0  0  0  0  0  0  0  0  0  0
   35.9328   45.2000    2.2678 H   0  0  0  0  0  0  0  0  0  0  0  0
   34.4813   44.4143    2.8414 H   0  0  0  0  0  0  0  0  0  0  0  0
   35.9528   43.4933    2.6420 H   0  0  0  0  0  0  0  0  0  0  0  0
   36.9433   45.6119    7.8271 H   0  0  0  0  0  0  0  0  0  0  0  0
   39.5558   47.3627    7.1128 H   0  0  0  0  0  0  0  0  0  0  0  0
   38.1492   46.8224    7.9964 H   0  0  0  0  0  0  0  0  0  0  0  0
   37.2992   48.9929    8.1738 H   0  0  0  0  0  0  0  0  0  0  0  0
   39.0425   49.0990    8.5340 H   0  0  0  0  0  0  0  0  0  0  0  0
   38.7184   50.2842    4.7943 H   0  0  0  0  0  0  0  0  0  0  0  0
   39.7579   49.0415    5.5263 H   0  0  0  0  0  0  0  0  0  0  0  0
   38.2293   47.9635    4.0916 H   0  0  0  0  0  0  0  0  0  0  0  0
   36.8797   48.7800    4.8150 H   0  0  0  0  0  0  0  0  0  0  0  0
   36.5319   50.5567    7.0812 H   0  0  0  0  0  0  0  0  0  0  0  0
   37.4588   51.4386    5.8547 H   0  0  0  0  0  0  0  0  0  0  0  0
   37.8242   51.6587    8.8099 H   0  0  0  0  0  0  0  0  0  0  0  0
   37.0458   52.8356    7.7794 H   0  0  0  0  0  0  0  0  0  0  0  0
   38.7511   52.5035    7.5933 H   0  0  0  0  0  0  0  0  0  0  0  0
  1  7  1  0  0  0  0
  1  2  2  0  0  0  0
  2 46  1  0  0  0  0
  3  2  1  0  0  0  0
  3  4  1  0  0  0  0
  5 27  1  6  0  0  0
  5  3  1  0  0  0  0
  6  5  1  0  0  0  0
  6  1  1  0  0  0  0
  7 12  2  0  0  0  0
  8  7  1  0  0  0  0
  8 47  1  0  0  0  0
  9  8  2  0  0  0  0
  9 10  1  0  0  0  0
  9 48  1  0  0  0  0
 10 11  2  0  0  0  0
 11 12  1  0  0  0  0
 11 49  1  0  0  0  0
 12 50  1  0  0  0  0
 13 10  1  0  0  0  0
 13 18  1  0  0  0  0
 14 13  1  0  0  0  0
 15 14  1  0  0  0  0
 15 17  1  0  0  0  0
 16 14  2  0  0  0  0
 19 23  1  0  0  0  0
 19 15  1  1  0  0  0
 20 19  1  0  0  0  0
 20 51  1  0  0  0  0
 21 20  2  0  0  0  0
 21 22  1  0  0  0  0
 22 23  1  0  0  0  0
 23 24  1  0  0  0  0
 25 21  1  0  0  0  0
 25 52  1  0  0  0  0
 25 53  1  0  0  0  0
 26 25  1  0  0  0  0
 26 54  1  0  0  0  0
 26 55  1  0  0  0  0
 26 56  1  0  0  0  0
 27 28  1  0  0  0  0
 29 37  1  0  0  0  0
 29 27  1  1  0  0  0
 30 29  1  0  0  0  0
 31 33  1  6  0  0  0
 31 34  1  0  0  0  0
 31 30  1  0  0  0  0
 32 30  1  0  0  0  0
 33 57  1  0  0  0  0
 33 58  1  0  0  0  0
 33 59  1  0  0  0  0
 34 35  1  0  0  0  0
 35 38  1  0  0  0  0
 35 37  2  0  0  0  0
 36 34  1  0  0  0  0
 37 60  1  0  0  0  0
 38 39  1  0  0  0  0
 39 40  1  0  0  0  0
 39 61  1  0  0  0  0
 39 62  1  0  0  0  0
 40 63  1  0  0  0  0
 40 64  1  0  0  0  0
 41 44  1  0  0  0  0
 41 40  1  0  0  0  0
 42 41  1  0  0  0  0
 42 65  1  0  0  0  0
 42 66  1  0  0  0  0
 43 42  1  0  0  0  0
 43 38  1  0  0  0  0
 43 67  1  0  0  0  0
 43 68  1  0  0  0  0
 44 45  1  0  0  0  0
 44 69  1  0  0  0  0
 44 70  1  0  0  0  0
 45 71  1  0  0  0  0
 45 72  1  0  0  0  0
 45 73  1  0  0  0  0
M  END
>  <REMARK>
 VINA RESULT:      -8.0      1.870      2.186
  8 active torsions:
  status: ('A' for Active; 'I' for Inactive)
    1  A    between atoms: C_2  and  C_3 
    2  A    between atoms: C_5  and  N_6 
       I    between atoms: N_6  and  C_8 
       I    between atoms: C_8  and  N_10 
    3  A    between atoms: N_10  and  C_12 
    4  A    between atoms: C_15  and  C_16 
    5  A    between atoms: C_20  and  N_21 
    6  A    between atoms: N_21  and  C_23 
    7  A    between atoms: C_30  and  N_31 
    8  A    between atoms: N_34  and  C_35 

>  <TORSDO>
F 8

$$$$
resistance_project/docking/5319283d3047ac55/Q9UM73_WT/docked/molecule_0012_out.pdbqt
 OpenBabel09232609203D

 73 77  0  0  1  0  0  0  0  0999 V2000
   33.6190   50.1890    5.9650 C   0  0  0  0  0  0  0  0  0  0  0  0
   34.0080   51.3360    5.6170 C   0  0  0  0  0  0  0  0  0  0  0  0
   33.1730   52.3000    5.3220 N   0  0  0  0  0  0  0  0  0  0  0  0
   33.5890   53.1910    5.0530 H   0  0  0  0  0  0  0  0  0  0  0  0
   31.9850   52.2540    5.3350 C   0  0  2  0  0  0  0  0  0  0  0  0
   31.7400   50.4410    5.8850 S   0  0  0  0  0  0  0  0  0  0  0  0
   34.1370   48.8740    6.3660 C   0  0  0  0  0  0  0  0  0  0  0  0
   34.8380   48.8610    7.5780 C   0  0  0  0  0  0  0  0  0  0  0  0
   35.3570   47.6630    8.0260 C   0  0  0  0  0  0  0  0  0  0  0  0
   35.1870   46.5040    7.2920 C   0  0  0  0  0  0  0  0  0  0  0  0
   34.4930   46.5370    6.1000 C   0  0  0  0  0  0  0  0  0  0  0  0
   33.9530   47.7350    5.6150 C   0  0  0  0  0  0  0  0  0  0  0  0
   35.7570   45.3190    7.8350 N   0  0  0  0  0  0  0  0  0  0  0  0
   35.0200   44.3870    8.5970 C   0  0  0  0  0  0  0  0  0  0  0  0
   35.6390   43.1770    8.9610 N   0  0  0  0  0  0  0  0  0  0  0  0
   33.8330   44.5860    8.9670 O   0  0  0  0  0  0  0  0  0  0  0  0
   36.6180   43.0560    8.6990 H   0  0  0  0  0  0  0  0  0  0  0  0
   36.7450   45.1340    7.6650 H   0  0  0  0  0  0  0  0  0  0  0  0
   35.0170   42.1100    9.6630 C   0  0  1  0  0  0  0  0  0  0  0  0
   35.5450   40.8440    9.7210 C   0  0  0  0  0  0  0  0  0  0  0  0
   34.6720   40.0970   10.4830 C   0  0  0  0  0  0  0  0  0  0  0  0
   33.7140   40.8960   10.8300 O   0  0  0  0  0  0  0  0  0  0  0  0
   33.8730   42.0920   10.3720 N   0  0  0  0  0  0  0  0  0  0  0  0
   33.2440   42.8820   10.5200 H   0  0  0  0  0  0  0  0  0  0  0  0
   34.8690   38.6650   10.7920 C   0  0  0  0  0  0  0  0  0  0  0  0
   33.7630   37.8710   10.1110 C   0  0  0  0  0  0  0  0  0  0  0  0
   30.8250   53.0400    5.0920 N   0  0  0  0  0  0  0  0  0  0  0  0
   30.7070   53.4380    4.1600 H   0  0  0  0  0  0  0  0  0  0  0  0
   29.8210   53.3110    6.0560 C   0  0  2  0  0  0  0  0  0  0  0  0
   29.9220   54.2850    6.9840 N   0  0  0  0  0  0  0  0  0  0  0  0
   28.9400   54.5020    7.8810 C   0  0  1  0  0  0  0  0  0  0  0  0
   30.7580   54.8690    7.0060 H   0  0  0  0  0  0  0  0  0  0  0  0
   29.0510   55.5860    8.9140 C   0  0  0  0  0  0  0  0  0  0  0  0
   27.8190   53.7550    7.8860 N   0  0  0  0  0  0  0  0  0  0  0  0
   27.7060   52.7840    6.9700 C   0  0  0  0  0  0  0  0  0  0  0  0
   27.0790   53.9220    8.5680 H   0  0  0  0  0  0  0  0  0  0  0  0
   28.6960   52.5410    6.0410 C   0  0  0  0  0  0  0  0  0  0  0  0
   26.5130   51.9740    6.9680 N   0  0  0  0  0  0  0  0  0  0  0  0
   26.5580   50.6090    7.4160 C   0  0  0  0  0  0  0  0  0  0  0  0
   25.7940   49.7400    6.4490 C   0  0  0  0  0  0  0  0  0  0  0  0
   24.5110   50.2600    6.0770 N   0  0  0  0  0  0  0  0  0  0  0  0
   24.1840   51.5330    6.6640 C   0  0  0  0  0  0  0  0  0  0  0  0
   25.2600   52.5620    6.5010 C   0  0  0  0  0  0  0  0  0  0  0  0
   24.1920   50.1510    4.6860 C   0  0  0  0  0  0  0  0  0  0  0  0
   25.4120   50.2310    3.7950 C   0  0  0  0  0  0  0  0  0  0  0  0
   35.0216   51.5221    5.5626 H   0  0  0  0  0  0  0  0  0  0  0  0
   34.9638   49.7276    8.1241 H   0  0  0  0  0  0  0  0  0  0  0  0
   35.8767   47.6323    8.9171 H   0  0  0  0  0  0  0  0  0  0  0  0
   34.3701   45.6672    5.5584 H   0  0  0  0  0  0  0  0  0  0  0  0
   33.4340   47.7629    4.7235 H   0  0  0  0  0  0  0  0  0  0  0  0
   36.4200   40.5171    9.2822 H   0  0  0  0  0  0  0  0  0  0  0  0
   35.8221   38.3441   10.4266 H   0  0  0  0  0  0  0  0  0  0  0  0
   34.8362   38.5089   11.8500 H   0  0  0  0  0  0  0  0  0  0  0  0
   33.8053   38.0345    9.0544 H   0  0  0  0  0  0  0  0  0  0  0  0
   32.8126   38.1914   10.4837 H   0  0  0  0  0  0  0  0  0  0  0  0
   33.8938   36.8290   10.3162 H   0  0  0  0  0  0  0  0  0  0  0  0
   29.9839   56.0967    8.7963 H   0  0  0  0  0  0  0  0  0  0  0  0
   29.0020   55.1536    9.8915 H   0  0  0  0  0  0  0  0  0  0  0  0
   28.2463   56.2803    8.7904 H   0  0  0  0  0  0  0  0  0  0  0  0
   28.5868   51.7872    5.3446 H   0  0  0  0  0  0  0  0  0  0  0  0
   27.5757   50.2819    7.4629 H   0  0  0  0  0  0  0  0  0  0  0  0
   26.1163   50.5367    8.3879 H   0  0  0  0  0  0  0  0  0  0  0  0
   26.3812   49.6296    5.5614 H   0  0  0  0  0  0  0  0  0  0  0  0
   25.6155   48.8100    6.9472 H   0  0  0  0  0  0  0  0  0  0  0  0
   24.0096   51.3886    7.7098 H   0  0  0  0  0  0  0  0  0  0  0  0
   23.3181   51.9007    6.1542 H   0  0  0  0  0  0  0  0  0  0  0  0
   25.0257   53.4292    7.0824 H   0  0  0  0  0  0  0  0  0  0  0  0
   25.3440   52.8564    5.4757 H   0  0  0  0  0  0  0  0  0  0  0  0
   23.7082   49.2113    4.5191 H   0  0  0  0  0  0  0  0  0  0  0  0
   23.5570   50.9752    4.4363 H   0  0  0  0  0  0  0  0  0  0  0  0
   26.0711   49.4183    4.0189 H   0  0  0  0  0  0  0  0  0  0  0  0
   25.9181   51.1581    3.9657 H   0  0  0  0  0  0  0  0  0  0  0  0
   25.1097   50.1731    2.7702 H   0  0  0  0  0  0  0  0  0  0  0  0
  1  7  1  0  0  0  0
  2  1  2  0  0  0  0
  2 46  1  0  0  0  0
  3  5  1  0  0  0  0
  3  2  1  0  0  0  0
  4  3  1  0  0  0  0
  5 27  1  6  0  0  0
  5  6  1  0  0  0  0
  6  1  1  0  0  0  0
  7  8  2  0  0  0  0
  8  9  1  0  0  0  0
  8 47  1  0  0  0  0
  9 48  1  0  0  0  0
 10 13  1  0  0  0  0
 10  9  2  0  0  0  0
 11 10  1  0  0  0  0
 11 49  1  0  0  0  0
 12 11  2  0  0  0  0
 12  7  1  0  0  0  0
 12 50  1  0  0  0  0
 13 14  1  0  0  0  0
 14 15  1  0  0  0  0
 14 16  2  0  0  0  0
 17 15  1  0  0  0  0
 18 13  1  0  0  0  0
 19 15  1  1  0  0  0
 19 20  1  0  0  0  0
 19 23  1  0  0  0  0
 20 21  2  0  0  0  0
 20 51  1  0  0  0  0
 21 25  1  0  0  0  0
 21 22  1  0  0  0  0
 23 24  1  0  0  0  0
 23 22  1  0  0  0  0
 25 52  1  0  0  0  0
 25 53  1  0  0  0  0
 26 25  1  0  0  0  0
 26 54  1  0  0  0  0
 26 55  1  0  0  0  0
 26 56  1  0  0  0  0
 28 27  1  0  0  0  0
 29 27  1  1  0  0  0
 29 30  1  0  0  0  0
 30 32  1  0  0  0  0
 30 31  1  0  0  0  0
 31 34  1  0  0  0  0
 31 33  1  6  0  0  0
 33 57  1  0  0  0  0
 33 58  1  0  0  0  0
 33 59  1  0  0  0  0
 34 36  1  0  0  0  0
 35 34  1  0  0  0  0
 37 29  1  0  0  0  0
 37 35  2  0  0  0  0
 37 60  1  0  0  0  0
 38 35  1  0  0  0  0
 38 39  1  0  0  0  0
 39 61  1  0  0  0  0
 39 62  1  0  0  0  0
 40 39  1  0  0  0  0
 40 63  1  0  0  0  0
 40 64  1  0  0  0  0
 41 40  1  0  0  0  0
 41 42  1  0  0  0  0
 42 65  1  0  0  0  0
 42 66  1  0  0  0  0
 43 42  1  0  0  0  0
 43 38  1  0  0  0  0
 43 67  1  0  0  0  0
 43 68  1  0  0  0  0
 44 41  1  0  0  0  0
 44 69  1  0  0  0  0
 44 70  1  0  0  0  0
 45 44  1  0  0  0  0
 45 71  1  0  0  0  0
 45 72  1  0  0  0  0
 45 73  1  0  0  0  0
M  END
>  <REMARK>
 VINA RESULT:      -7.9      4.040     11.343
  8 active torsions:
  status: ('A' for Active; 'I' for Inactive)
    1  A    between atoms: C_2  and  C_3 
    2  A    between atoms: C_5  and  N_6 
       I    between atoms: N_6  and  C_8 
       I    between atoms: C_8  and  N_10 
    3  A    between atoms: N_10  and  C_12 
    4  A    between atoms: C_15  and  C_16 
    5  A    between atoms: C_20  and  N_21 
    6  A    between atoms: N_21  and  C_23 
    7  A    between atoms: C_30  and  N_31 
    8  A    between atoms: N_34  and  C_35 

>  <TORSDO>
F 8

$$$$
