resistance_project/docking/5319283d3047ac55/Q9UM73_WT/docked/molecule_0010_out.pdbqt
 OpenBabel09232609193D

 60 64  0  0  1  0  0  0  0  0999 V2000
   29.0550   45.7330    8.7410 C   0  0  2  0  0  0  0  0  0  0  0  0
   30.1040   44.8720    8.5120 C   0  0  0  0  0  0  0  0  0  0  0  0
   30.2910   43.7150    9.2610 C   0  0  0  0  0  0  0  0  0  0  0  0
   29.4310   43.4050   10.2470 N   0  0  0  0  0  0  0  0  0  0  0  0
   29.5600   42.5590   10.8020 H   0  0  0  0  0  0  0  0  0  0  0  0
   28.3890   44.2370   10.4940 C   0  0  0  0  0  0  0  0  0  0  0  0
   28.1790   45.3950    9.7630 C   0  0  0  0  0  0  0  0  0  0  0  0
   28.8880   46.9390    7.9360 C   0  0  0  0  0  0  0  0  0  0  0  0
   29.8120   47.3480    6.9970 C   0  0  0  0  0  0  0  0  0  0  0  0
   29.6760   48.4520    6.2490 N   0  0  0  0  0  0  0  0  0  0  0  0
   28.5760   49.2100    6.4180 C   0  0  0  0  0  0  0  0  0  0  0  0
   30.3890   48.7130    5.5670 H   0  0  0  0  0  0  0  0  0  0  0  0
   28.4180   50.3610    5.6470 C   0  0  0  0  0  0  0  0  0  0  0  0
   27.6000   48.8580    7.3470 C   0  0  0  0  0  0  0  0  0  0  0  0
   27.2790   51.1380    5.8270 C   0  0  0  0  0  0  0  0  0  0  0  0
   26.3040   50.7910    6.7520 C   0  0  0  0  0  0  0  0  0  0  0  0
   27.0120   52.7140    4.8080 Br  0  0  0  0  0  0  0  0  0  0  0  0
   26.4660   49.6350    7.5240 C   0  0  0  0  0  0  0  0  0  0  0  0
   27.7710   47.7130    8.1030 C   0  0  0  0  0  0  0  0  0  0  0  0
   30.9570   46.5900    6.7990 O   0  0  0  0  0  0  0  0  0  0  0  0
   32.1620   47.1230    6.3120 C   0  0  0  0  0  0  0  0  0  0  0  0
   33.2280   47.1110    7.3580 C   0  0  0  0  0  0  0  0  0  0  0  0
   32.9650   47.0300    8.5750 O   0  0  0  0  0  0  0  0  0  0  0  0
   34.5410   47.1940    6.8950 O   0  0  0  0  0  0  0  0  0  0  0  0
   31.4140   42.9170    8.9190 N   0  0  0  0  0  0  0  0  0  0  0  0
   31.2370   41.9360    8.7000 H   0  0  0  0  0  0  0  0  0  0  0  0
   32.7460   43.3510    8.8560 C   0  0  0  0  0  0  0  0  0  0  0  0
   33.4130   43.2800    7.6300 C   0  0  0  0  0  0  0  0  0  0  0  0
   34.7320   43.6980    7.5160 C   0  0  0  0  0  0  0  0  0  0  0  0
   35.4140   44.1880    8.5940 C   0  0  0  0  0  0  0  0  0  0  0  0
   34.7870   44.2670    9.7990 C   0  0  0  0  0  0  0  0  0  0  0  0
   33.4640   43.8510    9.9230 C   0  0  0  0  0  0  0  0  0  0  0  0
   36.7600   44.6040    8.4320 N   0  0  0  0  0  0  0  0  0  0  0  0
   37.3970   45.5660    9.3410 C   0  0  0  0  0  0  0  0  0  0  0  0
   37.9370   46.6560    8.4090 C   0  0  0  0  0  0  0  0  0  0  0  0
   38.9360   46.0790    7.6470 O   0  0  0  0  0  0  0  0  0  0  0  0
   38.5180   45.1080    6.7710 C   0  0  0  0  0  0  0  0  0  0  0  0
   37.5800   44.0930    7.3510 C   0  0  0  0  0  0  0  0  0  0  0  0
   30.7745   45.0923    7.7591 H   0  0  0  0  0  0  0  0  0  0  0  0
   27.7302   43.9996   11.2521 H   0  0  0  0  0  0  0  0  0  0  0  0
   27.3740   46.0041    9.9777 H   0  0  0  0  0  0  0  0  0  0  0  0
   29.1340   50.6315    4.9548 H   0  0  0  0  0  0  0  0  0  0  0  0
   25.4656   51.3812    6.8696 H   0  0  0  0  0  0  0  0  0  0  0  0
   25.7501   49.3645    8.2164 H   0  0  0  0  0  0  0  0  0  0  0  0
   26.9281   47.0843    7.9051 H   0  0  0  0  0  0  0  0  0  0  0  0
   31.9942   48.1321    5.9982 H   0  0  0  0  0  0  0  0  0  0  0  0
   32.4894   46.5186    5.4920 H   0  0  0  0  0  0  0  0  0  0  0  0
   32.0738   46.9754    8.8591 H   0  0  0  0  0  0  0  0  0  0  0  0
   32.9200   42.9131    6.8009 H   0  0  0  0  0  0  0  0  0  0  0  0
   35.2057   43.6376    6.6011 H   0  0  0  0  0  0  0  0  0  0  0  0
   35.2917   44.6350   10.6205 H   0  0  0  0  0  0  0  0  0  0  0  0
   33.0046   43.9190   10.8446 H   0  0  0  0  0  0  0  0  0  0  0  0
   36.6827   45.9716   10.0267 H   0  0  0  0  0  0  0  0  0  0  0  0
   38.1631   45.1206    9.9407 H   0  0  0  0  0  0  0  0  0  0  0  0
   37.1546   47.0182    7.7754 H   0  0  0  0  0  0  0  0  0  0  0  0
   38.3157   47.4846    8.9702 H   0  0  0  0  0  0  0  0  0  0  0  0
   38.0224   45.5892    5.9538 H   0  0  0  0  0  0  0  0  0  0  0  0
   39.3961   44.5710    6.4785 H   0  0  0  0  0  0  0  0  0  0  0  0
   38.1583   43.2739    7.7245 H   0  0  0  0  0  0  0  0  0  0  0  0
   36.9140   43.8002    6.5664 H   0  0  0  0  0  0  0  0  0  0  0  0
  1  8  1  6  0  0  0
  1  7  1  0  0  0  0
  2  1  1  0  0  0  0
  2  3  2  0  0  0  0
  2 39  1  0  0  0  0
  3  4  1  0  0  0  0
  4  6  1  0  0  0  0
  4  5  1  0  0  0  0
  6 40  1  0  0  0  0
  7  6  2  0  0  0  0
  7 41  1  0  0  0  0
  8 19  1  0  0  0  0
  9  8  2  0  0  0  0
 10 11  1  0  0  0  0
 10  9  1  0  0  0  0
 11 14  2  0  0  0  0
 12 10  1  0  0  0  0
 13 15  2  0  0  0  0
 13 11  1  0  0  0  0
 13 42  1  0  0  0  0
 14 18  1  0  0  0  0
 14 19  1  0  0  0  0
 15 16  1  0  0  0  0
 16 18  2  0  0  0  0
 16 43  1  0  0  0  0
 17 15  1  0  0  0  0
 18 44  1  0  0  0  0
 19 45  1  0  0  0  0
 20  9  1  0  0  0  0
 21 20  1  0  0  0  0
 21 22  1  0  0  0  0
 21 46  1  0  0  0  0
 21 47  1  0  0  0  0
 22 23  1  0  0  0  0
 23 48  1  0  0  0  0
 24 22  2  0  0  0  0
 25  3  1  0  0  0  0
 26 25  1  0  0  0  0
 27 25  1  0  0  0  0
 27 32  2  0  0  0  0
 28 27  1  0  0  0  0
 28 49  1  0  0  0  0
 29 28  2  0  0  0  0
 29 30  1  0  0  0  0
 29 50  1  0  0  0  0
 30 31  2  0  0  0  0
 31 32  1  0  0  0  0
 31 51  1  0  0  0  0
 32 52  1  0  0  0  0
 33 30  1  0  0  0  0
 33 34  1  0  0  0  0
 34 53  1  0  0  0  0
 34 54  1  0  0  0  0
 35 34  1  0  0  0  0
 35 55  1  0  0  0  0
 35 56  1  0  0  0  0
 36 35  1  0  0  0  0
 37 38  1  0  0  0  0
 37 36  1  0  0  0  0
 37 57  1  0  0  0  0
 37 58  1  0  0  0  0
 38 33  1  0  0  0  0
 38 59  1  0  0  0  0
 38 60  1  0  0  0  0
M  END
>  <MODEL>
1

>  <REMARK>
 VINA RESULT:      -8.4      0.000      0.000
  7 active torsions:
  status: ('A' for Active; 'I' for Inactive)
    1  A    between atoms: C_2  and  C_4 
    2  A    between atoms: C_4  and  O_5 
    3  A    between atoms: O_5  and  C_6 
    4  A    between atoms: C_7  and  C_8 
    5  A    between atoms: C_10  and  N_11 
    6  A    between atoms: N_11  and  C_13 
    7  A    between atoms: C_16  and  N_17 

>  <TORSDO>
F 7

$$$$
resistance_project/docking/5319283d3047ac55/Q9UM73_WT/docked/molecule_0010_out.pdbqt
 OpenBabel09232609193D

 60 64  0  0  1  0  0  0  0  0999 V2000
   29.4730   50.3000    6.6440 C   0  0  2  0  0  0  0  0  0  0  0  0
   30.5420   49.4470    6.4970 C   0  0  0  0  0  0  0  0  0  0  0  0
   31.8270   49.9080    6.2290 C   0  0  0  0  0  0  0  0  0  0  0  0
   32.0570   51.2270    6.1060 N   0  0  0  0  0  0  0  0  0  0  0  0
   32.9960   51.5750    5.9100 H   0  0  0  0  0  0  0  0  0  0  0  0
   31.0210   52.0890    6.2460 C   0  0  0  0  0  0  0  0  0  0  0  0
   29.7320   51.6570    6.5130 C   0  0  0  0  0  0  0  0  0  0  0  0
   28.1370   49.7830    6.9250 C   0  0  0  0  0  0  0  0  0  0  0  0
   27.9160   48.6440    7.6700 C   0  0  0  0  0  0  0  0  0  0  0  0
   26.6970   48.1540    7.9390 N   0  0  0  0  0  0  0  0  0  0  0  0
   25.6230   48.8070    7.4560 C   0  0  0  0  0  0  0  0  0  0  0  0
   26.5850   47.3060    8.4950 H   0  0  0  0  0  0  0  0  0  0  0  0
   24.3480   48.3110    7.7260 C   0  0  0  0  0  0  0  0  0  0  0  0
   25.7710   49.9640    6.6960 C   0  0  0  0  0  0  0  0  0  0  0  0
   23.2430   48.9910    7.2250 C   0  0  2  0  0  0  0  0  0  0  0  0
   23.3860   50.1450    6.4670 C   0  0  0  0  0  0  0  0  0  0  0  0
   21.4860   48.3630    7.5610 Br  0  0  0  0  0  0  0  0  0  0  0  0
   24.6670   50.6390    6.1980 C   0  0  0  0  0  0  0  0  0  0  0  0
   27.0410   50.4430    6.4370 C   0  0  0  0  0  0  0  0  0  0  0  0
   29.0020   47.9470    8.1810 O   0  0  0  0  0  0  0  0  0  0  0  0
   29.2720   46.6030    7.8730 C   0  0  0  0  0  0  0  0  0  0  0  0
   29.1090   45.7250    9.0700 C   0  0  0  0  0  0  0  0  0  0  0  0
   29.6080   44.5820    9.1290 O   0  0  0  0  0  0  0  0  0  0  0  0
   28.3660   46.2560   10.1230 O   0  0  0  0  0  0  0  0  0  0  0  0
   32.8390   48.9190    6.1000 N   0  0  0  0  0  0  0  0  0  0  0  0
   33.6000   49.1170    5.4510 H   0  0  0  0  0  0  0  0  0  0  0  0
   32.8860   47.6950    6.7810 C   0  0  0  0  0  0  0  0  0  0  0  0
   33.2240   47.6980    8.1380 C   0  0  0  0  0  0  0  0  0  0  0  0
   33.2840   46.5120    8.8550 C   0  0  0  0  0  0  0  0  0  0  0  0
   33.0170   45.3120    8.2610 C   0  0  0  0  0  0  0  0  0  0  0  0
   32.6870   45.2800    6.9420 C   0  0  0  0  0  0  0  0  0  0  0  0
   32.6230   46.4650    6.2130 C   0  0  0  0  0  0  0  0  0  0  0  0
   33.0910   44.1240    9.0330 N   0  0  0  0  0  0  0  0  0  0  0  0
   33.5800   44.1190   10.4180 C   0  0  0  0  0  0  0  0  0  0  0  0
   34.6920   43.0640   10.4150 C   0  0  0  0  0  0  0  0  0  0  0  0
   34.0900   41.8420   10.1820 O   0  0  0  0  0  0  0  0  0  0  0  0
   33.5260   41.6940    8.9390 C   0  0  0  0  0  0  0  0  0  0  0  0
   32.6810   42.8460    8.4860 C   0  0  0  0  0  0  0  0  0  0  0  0
   30.3856   48.4310    6.5886 H   0  0  0  0  0  0  0  0  0  0  0  0
   31.1980   53.1012    6.1505 H   0  0  0  0  0  0  0  0  0  0  0  0
   28.9669   52.3422    6.6141 H   0  0  0  0  0  0  0  0  0  0  0  0
   24.2264   47.4540    8.2880 H   0  0  0  0  0  0  0  0  0  0  0  0
   22.5533   50.6351    6.1044 H   0  0  0  0  0  0  0  0  0  0  0  0
   24.7888   51.4957    5.6356 H   0  0  0  0  0  0  0  0  0  0  0  0
   27.1637   51.2997    5.8748 H   0  0  0  0  0  0  0  0  0  0  0  0
   30.2779   46.5229    7.5172 H   0  0  0  0  0  0  0  0  0  0  0  0
   28.5773   46.2835    7.1246 H   0  0  0  0  0  0  0  0  0  0  0  0
   28.0025   47.1167   10.0526 H   0  0  0  0  0  0  0  0  0  0  0  0
   33.4309   48.5917    8.6108 H   0  0  0  0  0  0  0  0  0  0  0  0
   33.5350   46.5372    9.8557 H   0  0  0  0  0  0  0  0  0  0  0  0
   32.4843   44.3788    6.4819 H   0  0  0  0  0  0  0  0  0  0  0  0
   32.3701   46.4218    5.2134 H   0  0  0  0  0  0  0  0  0  0  0  0
   32.7987   43.8461   11.0962 H   0  0  0  0  0  0  0  0  0  0  0  0
   33.9254   45.0804   10.7362 H   0  0  0  0  0  0  0  0  0  0  0  0
   35.3996   43.2783    9.6415 H   0  0  0  0  0  0  0  0  0  0  0  0
   35.2161   43.0594   11.3478 H   0  0  0  0  0  0  0  0  0  0  0  0
   34.3161   41.5626    8.2295 H   0  0  0  0  0  0  0  0  0  0  0  0
   32.8709   40.8506    9.0062 H   0  0  0  0  0  0  0  0  0  0  0  0
   31.6702   42.6604    8.7839 H   0  0  0  0  0  0  0  0  0  0  0  0
   32.7897   42.9129    7.4236 H   0  0  0  0  0  0  0  0  0  0  0  0
  1  8  1  1  0  0  0
  2  1  1  0  0  0  0
  2 39  1  0  0  0  0
  3  2  2  0  0  0  0
  4  3  1  0  0  0  0
  4  6  1  0  0  0  0
  5  4  1  0  0  0  0
  6  7  2  0  0  0  0
  6 40  1  0  0  0  0
  7  1  1  0  0  0  0
  7 41  1  0  0  0  0
  8  9  2  0  0  0  0
  9 10  1  0  0  0  0
  9 20  1  0  0  0  0
 10 12  1  0  0  0  0
 11 13  2  0  0  0  0
 11 10  1  0  0  0  0
 13 42  1  0  0  0  0
 14 11  1  0  0  0  0
 15 17  1  1  0  0  0
 15 13  1  0  0  0  0
 16 15  1  0  0  0  0
 16 43  1  0  0  0  0
 18 16  2  0  0  0  0
 18 14  1  0  0  0  0
 18 44  1  0  0  0  0
 19 14  2  0  0  0  0
 19  8  1  0  0  0  0
 19 45  1  0  0  0  0
 21 20  1  0  0  0  0
 21 22  1  0  0  0  0
 21 46  1  0  0  0  0
 21 47  1  0  0  0  0
 22 23  2  0  0  0  0
 22 24  1  0  0  0  0
 24 48  1  0  0  0  0
 25  3  1  0  0  0  0
 25 27  1  0  0  0  0
 26 25  1  0  0  0  0
 27 28  1  0  0  0  0
 28 29  2  0  0  0  0
 28 49  1  0  0  0  0
 29 50  1  0  0  0  0
 30 29  1  0  0  0  0
 30 33  1  0  0  0  0
 31 30  2  0  0  0  0
 31 51  1  0  0  0  0
 32 27  2  0  0  0  0
 32 31  1  0  0  0  0
 32 52  1  0  0  0  0
 33 34  1  0  0  0  0
 34 53  1  0  0  0  0
 34 54  1  0  0  0  0
 35 34  1  0  0  0  0
 35 55  1  0  0  0  0
 35 56  1  0  0  0  0
 36 35  1  0  0  0  0
 37 36  1  0  0  0  0
 37 57  1  0  0  0  0
 37 58  1  0  0  0  0
 38 37  1  0  0  0  0
 38 33  1  0  0  0  0
 38 59  1  0  0  0  0
 38 60  1  0  0  0  0
M  END
>  <REMARK>
 VINA RESULT:      -8.4      3.084      5.136
  7 active torsions:
  status: ('A' for Active; 'I' for Inactive)
    1  A    between atoms: C_2  and  C_4 
    2  A    between atoms: C_4  and  O_5 
    3  A    between atoms: O_5  and  C_6 
    4  A    between atoms: C_7  and  C_8 
    5  A    between atoms: C_10  and  N_11 
    6  A    between atoms: N_11  and  C_13 
    7  A    between atoms: C_16  and  N_17 

>  <TORSDO>
F 7

$$$$
resistance_project/docking/5319283d3047ac55/Q9UM73_WT/docked/molecule_0010_out.pdbqt
 OpenBabel09232609193D

 60 64  0  0  1  0  0  0  0  0999 V2000
   28.9240   45.6390    9.0420 C   0  0  2  0  0  0  0  0  0  0  0  0
   30.1950   45.2500    8.6880 C   0  0  0  0  0  0  0  0  0  0  0  0
   30.7950   44.1090    9.2110 C   0  0  0  0  0  0  0  0  0  0  0  0
   30.1280   43.3430   10.0940 N   0  0  0  0  0  0  0  0  0  0  0  0
   30.5600   42.5040   10.4830 H   0  0  0  0  0  0  0  0  0  0  0  0
   28.8740   43.7040   10.4590 C   0  0  0  0  0  0  0  0  0  0  0  0
   28.2540   44.8350    9.9530 C   0  0  0  0  0  0  0  0  0  0  0  0
   28.3240   46.8420    8.4730 C   0  0  0  0  0  0  0  0  0  0  0  0
   29.0710   47.9000    7.9990 C   0  0  0  0  0  0  0  0  0  0  0  0
   28.5390   49.0120    7.4740 N   0  0  0  0  0  0  0  0  0  0  0  0
   27.1980   49.1090    7.4010 C   0  0  0  0  0  0  0  0  0  0  0  0
   29.1350   49.7680    7.1370 H   0  0  0  0  0  0  0  0  0  0  0  0
   26.6280   50.2590    6.8580 C   0  0  0  0  0  0  0  0  0  0  0  0
   26.3810   48.0790    7.8600 C   0  0  0  0  0  0  0  0  0  0  0  0
   25.2420   50.3510    6.7850 C   0  0  0  0  0  0  0  0  0  0  0  0
   24.4230   49.3280    7.2410 C   0  0  0  0  0  0  0  0  0  0  0  0
   24.4120   51.8920    6.0560 Br  0  0  0  0  0  0  0  0  0  0  0  0
   24.9990   48.1750    7.7870 C   0  0  0  0  0  0  0  0  0  0  0  0
   26.9610   46.9450    8.3960 C   0  0  0  0  0  0  0  0  0  0  0  0
   30.4560   47.8320    8.0600 O   0  0  0  0  0  0  0  0  0  0  0  0
   31.3040   48.6910    7.3430 C   0  0  0  0  0  0  0  0  0  0  0  0
   31.8710   48.0180    6.1360 C   0  0  0  0  0  0  0  0  0  0  0  0
   32.8290   48.4970    5.4950 O   0  0  0  0  0  0  0  0  0  0  0  0
   31.2670   46.8180    5.7640 O   0  0  0  0  0  0  0  0  0  0  0  0
   32.1110   43.8240    8.7620 N   0  0  0  0  0  0  0  0  0  0  0  0
   32.3810   42.8420    8.7100 H   0  0  0  0  0  0  0  0  0  0  0  0
   33.0750   44.7690    8.3830 C   0  0  0  0  0  0  0  0  0  0  0  0
   33.3960   45.7910    9.2810 C   0  0  0  0  0  0  0  0  0  0  0  0
   34.3440   46.7500    8.9530 C   0  0  0  0  0  0  0  0  0  0  0  0
   34.9870   46.7260    7.7490 C   0  0  0  0  0  0  0  0  0  0  0  0
   34.6930   45.7420    6.8560 C   0  0  0  0  0  0  0  0  0  0  0  0
   33.7440   44.7750    7.1760 C   0  0  0  0  0  0  0  0  0  0  0  0
   35.9490   47.7260    7.4550 N   0  0  0  0  0  0  0  0  0  0  0  0
   37.3160   47.3970    7.0290 C   0  0  0  0  0  0  0  0  0  0  0  0
   38.2070   48.1620    8.0150 C   0  0  0  0  0  0  0  0  0  0  0  0
   38.0090   49.5090    7.7780 O   0  0  0  0  0  0  0  0  0  0  0  0
   36.7540   49.9790    8.0740 C   0  0  0  0  0  0  0  0  0  0  0  0
   35.6250   49.1350    7.5630 C   0  0  0  0  0  0  0  0  0  0  0  0
   30.7215   45.8242    8.0112 H   0  0  0  0  0  0  0  0  0  0  0  0
   28.3635   43.1166   11.1368 H   0  0  0  0  0  0  0  0  0  0  0  0
   27.2970   45.0786   10.2527 H   0  0  0  0  0  0  0  0  0  0  0  0
   27.2239   51.0290    6.5160 H   0  0  0  0  0  0  0  0  0  0  0  0
   23.3967   49.4165    7.1781 H   0  0  0  0  0  0  0  0  0  0  0  0
   24.4030   47.4059    8.1310 H   0  0  0  0  0  0  0  0  0  0  0  0
   26.6219   46.1178    7.8081 H   0  0  0  0  0  0  0  0  0  0  0  0
   30.7469   49.5502    7.0326 H   0  0  0  0  0  0  0  0  0  0  0  0
   32.1145   48.9732    7.9820 H   0  0  0  0  0  0  0  0  0  0  0  0
   30.5492   46.4805    6.2628 H   0  0  0  0  0  0  0  0  0  0  0  0
   32.9232   45.8328   10.1973 H   0  0  0  0  0  0  0  0  0  0  0  0
   34.5669   47.4948    9.6316 H   0  0  0  0  0  0  0  0  0  0  0  0
   35.1729   45.7127    5.9428 H   0  0  0  0  0  0  0  0  0  0  0  0
   33.5334   44.0367    6.4864 H   0  0  0  0  0  0  0  0  0  0  0  0
   37.4908   47.7247    6.0255 H   0  0  0  0  0  0  0  0  0  0  0  0
   37.5064   46.3441    7.0340 H   0  0  0  0  0  0  0  0  0  0  0  0
   39.2341   47.9080    7.8553 H   0  0  0  0  0  0  0  0  0  0  0  0
   37.9600   47.9120    9.0256 H   0  0  0  0  0  0  0  0  0  0  0  0
   36.6657   50.0424    9.1385 H   0  0  0  0  0  0  0  0  0  0  0  0
   36.6656   50.9258    7.5835 H   0  0  0  0  0  0  0  0  0  0  0  0
   34.7961   49.2401    8.2314 H   0  0  0  0  0  0  0  0  0  0  0  0
   35.4012   49.4795    6.5750 H   0  0  0  0  0  0  0  0  0  0  0  0
  1  8  1  6  0  0  0
  1  7  1  0  0  0  0
  2  1  1  0  0  0  0
  2  3  2  0  0  0  0
  2 39  1  0  0  0  0
  3  4  1  0  0  0  0
  4  6  1  0  0  0  0
  4  5  1  0  0  0  0
  6 40  1  0  0  0  0
  7  6  2  0  0  0  0
  7 41  1  0  0  0  0
  9 20  1  0  0  0  0
  9  8  2  0  0  0  0
 10  9  1  0  0  0  0
 11 10  1  0  0  0  0
 11 14  2  0  0  0  0
 12 10  1  0  0  0  0
 13 11  1  0  0  0  0
 13 42  1  0  0  0  0
 14 19  1  0  0  0  0
 15 13  2  0  0  0  0
 15 16  1  0  0  0  0
 16 18  2  0  0  0  0
 16 43  1  0  0  0  0
 17 15  1  0  0  0  0
 18 14  1  0  0  0  0
 18 44  1  0  0  0  0
 19  8  1  0  0  0  0
 19 45  1  0  0  0  0
 21 20  1  0  0  0  0
 21 46  1  0  0  0  0
 21 47  1  0  0  0  0
 22 21  1  0  0  0  0
 23 22  2  0  0  0  0
 24 22  1  0  0  0  0
 24 48  1  0  0  0  0
 25  3  1  0  0  0  0
 26 25  1  0  0  0  0
 27 25  1  0  0  0  0
 27 28  2  0  0  0  0
 28 49  1  0  0  0  0
 29 28  1  0  0  0  0
 29 50  1  0  0  0  0
 30 29  2  0  0  0  0
 31 32  2  0  0  0  0
 31 30  1  0  0  0  0
 31 51  1  0  0  0  0
 32 27  1  0  0  0  0
 32 52  1  0  0  0  0
 33 38  1  0  0  0  0
 33 30  1  0  0  0  0
 34 33  1  0  0  0  0
 34 35  1  0  0  0  0
 34 53  1  0  0  0  0
 34 54  1  0  0  0  0
 35 55  1  0  0  0  0
 35 56  1  0  0  0  0
 36 35  1  0  0  0  0
 36 37  1  0  0  0  0
 37 57  1  0  0  0  0
 37 58  1  0  0  0  0
 38 37  1  0  0  0  0
 38 59  1  0  0  0  0
 38 60  1  0  0  0  0
M  END
>  <REMARK>
 VINA RESULT:      -8.3      1.875      2.526
  7 active torsions:
  status: ('A' for Active; 'I' for Inactive)
    1  A    between atoms: C_2  and  C_4 
    2  A    between atoms: C_4  and  O_5 
    3  A    between atoms: O_5  and  C_6 
    4  A    between atoms: C_7  and  C_8 
    5  A    between atoms: C_10  and  N_11 
    6  A    between atoms: N_11  and  C_13 
    7  A    between atoms: C_16  and  N_17 

>  <TORSDO>
F 7

$$$$
resistance_project/docking/5319283d3047ac55/Q9UM73_WT/docked/molecule_0010_out.pdbqt
 OpenBabel09232609193D

 60 64  0  0  1  0  0  0  0  0999 V2000
   29.9370   46.1970    8.2370 C   0  0  2  0  0  0  0  0  0  0  0  0
   29.1880   47.3490    8.1600 C   0  0  0  0  0  0  0  0  0  0  0  0
   27.8830   47.4190    8.6370 C   0  0  0  0  0  0  0  0  0  0  0  0
   27.3130   46.3380    9.1980 N   0  0  0  0  0  0  0  0  0  0  0  0
   26.3560   46.3790    9.5510 H   0  0  0  0  0  0  0  0  0  0  0  0
   28.0290   45.1900    9.2870 C   0  0  0  0  0  0  0  0  0  0  0  0
   29.3300   45.0930    8.8200 C   0  0  0  0  0  0  0  0  0  0  0  0
   31.3040   46.1580    7.7270 C   0  0  0  0  0  0  0  0  0  0  0  0
   32.3120   45.4410    8.3370 C   0  0  0  0  0  0  0  0  0  0  0  0
   33.5730   45.3940    7.8830 N   0  0  0  0  0  0  0  0  0  0  0  0
   33.8790   46.0830    6.7690 C   0  0  0  0  0  0  0  0  0  0  0  0
   34.2830   44.8480    8.3710 H   0  0  0  0  0  0  0  0  0  0  0  0
   35.1850   46.0450    6.2840 C   0  0  0  0  0  0  0  0  0  0  0  0
   32.9120   46.8300    6.1000 C   0  0  0  0  0  0  0  0  0  0  0  0
   35.4950   46.7600    5.1310 C   0  0  1  0  0  0  0  0  0  0  0  0
   34.5350   47.5050    4.4610 C   0  0  0  0  0  0  0  0  0  0  0  0
   37.2550   46.7440    4.4260 Br  0  0  0  0  0  0  0  0  0  0  0  0
   33.2250   47.5420    4.9520 C   0  0  0  0  0  0  0  0  0  0  0  0
   31.6220   46.8580    6.5940 C   0  0  0  0  0  0  0  0  0  0  0  0
   32.0280   44.7200    9.4880 O   0  0  0  0  0  0  0  0  0  0  0  0
   32.4490   43.3950    9.6930 C   0  0  0  0  0  0  0  0  0  0  0  0
   32.1870   42.5460    8.4930 C   0  0  0  0  0  0  0  0  0  0  0  0
   31.0370   42.1860    8.1700 O   0  0  0  0  0  0  0  0  0  0  0  0
   33.3070   42.1770    7.7480 O   0  0  0  0  0  0  0  0  0  0  0  0
   27.2240   48.6690    8.4930 N   0  0  0  0  0  0  0  0  0  0  0  0
   27.4270   49.3820    9.1930 H   0  0  0  0  0  0  0  0  0  0  0  0
   26.3200   49.0120    7.4780 C   0  0  0  0  0  0  0  0  0  0  0  0
   26.7530   49.8660    6.4600 C   0  0  0  0  0  0  0  0  0  0  0  0
   25.8950   50.2350    5.4330 C   0  0  0  0  0  0  0  0  0  0  0  0
   24.6100   49.7770    5.3870 C   0  0  0  0  0  0  0  0  0  0  0  0
   24.1630   48.9450    6.3660 C   0  0  0  0  0  0  0  0  0  0  0  0
   25.0150   48.5680    7.4000 C   0  0  0  0  0  0  0  0  0  0  0  0
   23.7680   50.1790    4.3180 N   0  0  0  0  0  0  0  0  0  0  0  0
   24.3020   50.7180    3.0610 C   0  0  0  0  0  0  0  0  0  0  0  0
   23.5730   52.0570    2.8910 C   0  0  0  0  0  0  0  0  0  0  0  0
   22.2380   51.7680    2.6860 O   0  0  0  0  0  0  0  0  0  0  0  0
   21.5900   51.2010    3.7560 C   0  0  0  0  0  0  0  0  0  0  0  0
   22.3250   50.0750    4.4180 C   0  0  0  0  0  0  0  0  0  0  0  0
   29.6087   48.1895    7.7339 H   0  0  0  0  0  0  0  0  0  0  0  0
   27.5903   44.3607    9.7169 H   0  0  0  0  0  0  0  0  0  0  0  0
   29.8458   44.2032    8.9053 H   0  0  0  0  0  0  0  0  0  0  0  0
   35.9100   45.4959    6.7717 H   0  0  0  0  0  0  0  0  0  0  0  0
   34.7852   48.0278    3.6071 H   0  0  0  0  0  0  0  0  0  0  0  0
   32.5004   48.0927    4.4654 H   0  0  0  0  0  0  0  0  0  0  0  0
   30.8964   47.4078    6.1079 H   0  0  0  0  0  0  0  0  0  0  0  0
   33.4990   43.3917    9.8988 H   0  0  0  0  0  0  0  0  0  0  0  0
   31.8982   42.9913   10.5168 H   0  0  0  0  0  0  0  0  0  0  0  0
   30.3013   42.4478    8.6879 H   0  0  0  0  0  0  0  0  0  0  0  0
   27.7202   50.2259    6.4719 H   0  0  0  0  0  0  0  0  0  0  0  0
   26.2347   50.8668    4.6911 H   0  0  0  0  0  0  0  0  0  0  0  0
   23.1930   48.5936    6.3421 H   0  0  0  0  0  0  0  0  0  0  0  0
   24.6592   47.9350    8.1333 H   0  0  0  0  0  0  0  0  0  0  0  0
   25.3594   50.8668    3.1299 H   0  0  0  0  0  0  0  0  0  0  0  0
   24.1493   50.0582    2.2326 H   0  0  0  0  0  0  0  0  0  0  0  0
   23.6887   52.6526    3.7723 H   0  0  0  0  0  0  0  0  0  0  0  0
   23.9749   52.6081    2.0666 H   0  0  0  0  0  0  0  0  0  0  0  0
   20.6482   50.8264    3.4131 H   0  0  0  0  0  0  0  0  0  0  0  0
   21.4982   51.9718    4.4924 H   0  0  0  0  0  0  0  0  0  0  0  0
   22.0203   49.1575    3.9594 H   0  0  0  0  0  0  0  0  0  0  0  0
   22.0812   50.1132    5.4592 H   0  0  0  0  0  0  0  0  0  0  0  0
  1  8  1  1  0  0  0
  1  7  1  0  0  0  0
  2  1  1  0  0  0  0
  2  3  2  0  0  0  0
  2 39  1  0  0  0  0
  3  4  1  0  0  0  0
  4  6  1  0  0  0  0
  4  5  1  0  0  0  0
  6 40  1  0  0  0  0
  7  6  2  0  0  0  0
  7 41  1  0  0  0  0
  8  9  2  0  0  0  0
  9 20  1  0  0  0  0
 10  9  1  0  0  0  0
 10 12  1  0  0  0  0
 11 10  1  0  0  0  0
 13 11  2  0  0  0  0
 13 42  1  0  0  0  0
 14 19  2  0  0  0  0
 14 11  1  0  0  0  0
 15 17  1  1  0  0  0
 15 13  1  0  0  0  0
 16 18  2  0  0  0  0
 16 15  1  0  0  0  0
 16 43  1  0  0  0  0
 18 14  1  0  0  0  0
 18 44  1  0  0  0  0
 19  8  1  0  0  0  0
 19 45  1  0  0  0  0
 20 21  1  0  0  0  0
 21 46  1  0  0  0  0
 21 47  1  0  0  0  0
 22 21  1  0  0  0  0
 23 22  1  0  0  0  0
 23 48  1  0  0  0  0
 24 22  2  0  0  0  0
 25  3  1  0  0  0  0
 25 26  1  0  0  0  0
 27 25  1  0  0  0  0
 28 27  2  0  0  0  0
 28 49  1  0  0  0  0
 29 28  1  0  0  0  0
 29 50  1  0  0  0  0
 30 29  2  0  0  0  0
 30 31  1  0  0  0  0
 31 32  2  0  0  0  0
 31 51  1  0  0  0  0
 32 27  1  0  0  0  0
 32 52  1  0  0  0  0
 33 38  1  0  0  0  0
 33 30  1  0  0  0  0
 34 33  1  0  0  0  0
 34 53  1  0  0  0  0
 34 54  1  0  0  0  0
 35 34  1  0  0  0  0
 35 55  1  0  0  0  0
 35 56  1  0  0  0  0
 36 35  1  0  0  0  0
 36 37  1  0  0  0  0
 37 38  1  0  0  0  0
 37 57  1  0  0  0  0
 37 58  1  0  0  0  0
 38 59  1  0  0  0  0
 38 60  1  0  0  0  0
M  END
>  <REMARK>
 VINA RESULT:      -7.9      3.959      9.474
  7 active torsions:
  status: ('A' for Active; 'I' for Inactive)
    1  A    between atoms: C_2  and  C_4 
    2  A    between atoms: C_4  and  O_5 
    3  A    between atoms: O_5  and  C_6 
    4  A    between atoms: C_7  and  C_8 
    5  A    between atoms: C_10  and  N_11 
    6  A    between atoms: N_11  and  C_13 
    7  A    between atoms: C_16  and  N_17 

>  <TORSDO>
F 7

$$$$
resistance_project/docking/5319283d3047ac55/Q9UM73_WT/docked/molecule_0010_out.pdbqt
 OpenBabel09232609193D

 60 64  0  0  1  0  0  0  0  0999 V2000
   29.9470   45.7820    8.5580 C   0  0  2  0  0  0  0  0  0  0  0  0
   29.3630   47.0090    8.3440 C   0  0  0  0  0  0  0  0  0  0  0  0
   28.0470   47.2780    8.7070 C   0  0  0  0  0  0  0  0  0  0  0  0
   27.3000   46.3220    9.2880 N   0  0  0  0  0  0  0  0  0  0  0  0
   26.3350   46.5100    9.5580 H   0  0  0  0  0  0  0  0  0  0  0  0
   27.8520   45.1040    9.5100 C   0  0  0  0  0  0  0  0  0  0  0  0
   29.1590   44.8100    9.1590 C   0  0  0  0  0  0  0  0  0  0  0  0
   31.3310   45.5340    8.1660 C   0  0  0  0  0  0  0  0  0  0  0  0
   32.0430   46.3860    7.3480 C   0  0  0  0  0  0  0  0  0  0  0  0
   33.3140   46.1750    6.9770 N   0  0  0  0  0  0  0  0  0  0  0  0
   33.9370   45.0690    7.4250 C   0  0  0  0  0  0  0  0  0  0  0  0
   33.7970   46.8360    6.3680 H   0  0  0  0  0  0  0  0  0  0  0  0
   35.2590   44.8350    7.0490 C   0  0  0  0  0  0  0  0  0  0  0  0
   33.2810   44.1640    8.2550 C   0  0  0  0  0  0  0  0  0  0  0  0
   35.8970   43.6910    7.5170 C   0  0  0  0  0  0  0  0  0  0  0  0
   35.2460   42.7860    8.3450 C   0  0  0  0  0  0  0  0  0  0  0  0
   37.6930   43.3200    7.0380 Br  0  0  0  0  0  0  0  0  0  0  0  0
   33.9200   43.0250    8.7190 C   0  0  0  0  0  0  0  0  0  0  0  0
   31.9700   44.4110    8.6190 C   0  0  0  0  0  0  0  0  0  0  0  0
   31.4280   47.5340    6.8680 O   0  0  0  0  0  0  0  0  0  0  0  0
   32.1310   48.7010    6.5250 C   0  0  0  0  0  0  0  0  0  0  0  0
   31.2420   49.9010    6.5450 C   0  0  0  0  0  0  0  0  0  0  0  0
   30.3600   50.0610    7.4130 O   0  0  0  0  0  0  0  0  0  0  0  0
   31.4550   50.8370    5.5330 O   0  0  0  0  0  0  0  0  0  0  0  0
   27.5700   48.5860    8.4280 N   0  0  0  0  0  0  0  0  0  0  0  0
   27.9260   49.3430    9.0110 H   0  0  0  0  0  0  0  0  0  0  0  0
   26.6520   48.9330    7.4260 C   0  0  0  0  0  0  0  0  0  0  0  0
   27.0980   49.7070    6.3520 C   0  0  0  0  0  0  0  0  0  0  0  0
   26.2280   50.0760    5.3350 C   0  0  0  0  0  0  0  0  0  0  0  0
   24.9170   49.6960    5.3550 C   0  0  0  0  0  0  0  0  0  0  0  0
   24.4570   48.9420    6.3900 C   0  0  0  0  0  0  0  0  0  0  0  0
   25.3210   48.5660    7.4140 C   0  0  0  0  0  0  0  0  0  0  0  0
   24.0630   50.0950    4.2950 N   0  0  0  0  0  0  0  0  0  0  0  0
   24.5840   50.5560    3.0010 C   0  0  0  0  0  0  0  0  0  0  0  0
   23.9150   51.9200    2.7960 C   0  0  0  0  0  0  0  0  0  0  0  0
   22.5610   51.6890    2.6420 O   0  0  0  0  0  0  0  0  0  0  0  0
   21.9200   51.1980    3.7520 C   0  0  0  0  0  0  0  0  0  0  0  0
   22.6210   50.0650    4.4400 C   0  0  0  0  0  0  0  0  0  0  0  0
   29.9199   47.7553    7.8991 H   0  0  0  0  0  0  0  0  0  0  0  0
   27.2787   44.3708    9.9558 H   0  0  0  0  0  0  0  0  0  0  0  0
   29.5459   43.8713    9.3437 H   0  0  0  0  0  0  0  0  0  0  0  0
   35.7555   45.4989    6.4343 H   0  0  0  0  0  0  0  0  0  0  0  0
   35.7372   41.9432    8.6818 H   0  0  0  0  0  0  0  0  0  0  0  0
   33.4230   42.3611    9.3333 H   0  0  0  0  0  0  0  0  0  0  0  0
   31.3943   43.5730    8.2855 H   0  0  0  0  0  0  0  0  0  0  0  0
   32.9268   48.8461    7.2254 H   0  0  0  0  0  0  0  0  0  0  0  0
   32.5138   48.5831    5.5328 H   0  0  0  0  0  0  0  0  0  0  0  0
   30.2384   49.4161    8.0818 H   0  0  0  0  0  0  0  0  0  0  0  0
   28.0845   50.0076    6.3142 H   0  0  0  0  0  0  0  0  0  0  0  0
   26.5784   50.6474    4.5503 H   0  0  0  0  0  0  0  0  0  0  0  0
   23.4678   48.6491    6.4156 H   0  0  0  0  0  0  0  0  0  0  0  0
   24.9546   47.9936    8.1906 H   0  0  0  0  0  0  0  0  0  0  0  0
   25.6488   50.6558    3.0336 H   0  0  0  0  0  0  0  0  0  0  0  0
   24.3752   49.8714    2.2056 H   0  0  0  0  0  0  0  0  0  0  0  0
   24.0863   52.5446    3.6477 H   0  0  0  0  0  0  0  0  0  0  0  0
   24.3169   52.4164    1.9375 H   0  0  0  0  0  0  0  0  0  0  0  0
   20.9517   50.8557    3.4517 H   0  0  0  0  0  0  0  0  0  0  0  0
   21.8869   52.0015    4.4578 H   0  0  0  0  0  0  0  0  0  0  0  0
   22.2597   49.1455    4.0292 H   0  0  0  0  0  0  0  0  0  0  0  0
   22.4108   50.1571    5.4851 H   0  0  0  0  0  0  0  0  0  0  0  0
  1  8  1  1  0  0  0
  1  7  1  0  0  0  0
  2  1  1  0  0  0  0
  2  3  2  0  0  0  0
  2 39  1  0  0  0  0
  3  4  1  0  0  0  0
  4  6  1  0  0  0  0
  4  5  1  0  0  0  0
  6 40  1  0  0  0  0
  7  6  2  0  0  0  0
  7 41  1  0  0  0  0
  8 19  1  0  0  0  0
  9  8  2  0  0  0  0
 10  9  1  0  0  0  0
 10 11  1  0  0  0  0
 11 14  2  0  0  0  0
 12 10  1  0  0  0  0
 13 11  1  0  0  0  0
 13 15  2  0  0  0  0
 13 42  1  0  0  0  0
 14 19  1  0  0  0  0
 14 18  1  0  0  0  0
 15 16  1  0  0  0  0
 16 18  2  0  0  0  0
 16 43  1  0  0  0  0
 17 15  1  0  0  0  0
 18 44  1  0  0  0  0
 19 45  1  0  0  0  0
 20  9  1  0  0  0  0
 21 22  1  0  0  0  0
 21 20  1  0  0  0  0
 21 46  1  0  0  0  0
 21 47  1  0  0  0  0
 22 23  1  0  0  0  0
 23 48  1  0  0  0  0
 24 22  2  0  0  0  0
 25  3  1  0  0  0  0
 25 26  1  0  0  0  0
 27 25  1  0  0  0  0
 28 27  2  0  0  0  0
 28 49  1  0  0  0  0
 29 30  2  0  0  0  0
 29 28  1  0  0  0  0
 29 50  1  0  0  0  0
 30 31  1  0  0  0  0
 31 32  2  0  0  0  0
 31 51  1  0  0  0  0
 32 27  1  0  0  0  0
 32 52  1  0  0  0  0
 33 38  1  0  0  0  0
 33 30  1  0  0  0  0
 34 33  1  0  0  0  0
 34 53  1  0  0  0  0
 34 54  1  0  0  0  0
 35 34  1  0  0  0  0
 35 55  1  0  0  0  0
 35 56  1  0  0  0  0
 36 35  1  0  0  0  0
 36 37  1  0  0  0  0
 37 38  1  0  0  0  0
 37 57  1  0  0  0  0
 37 58  1  0  0  0  0
 38 59  1  0  0  0  0
 38 60  1  0  0  0  0
M  END
>  <REMARK>
 VINA RESULT:      -7.9      4.015      9.624
  7 active torsions:
  status: ('A' for Active; 'I' for Inactive)
    1  A    between atoms: C_2  and  C_4 
    2  A    between atoms: C_4  and  O_5 
    3  A    between atoms: O_5  and  C_6 
    4  A    between atoms: C_7  and  C_8 
    5  A    between atoms: C_10  and  N_11 
    6  A    between atoms: N_11  and  C_13 
    7  A    between atoms: C_16  and  N_17 

>  <TORSDO>
F 7

$$$$
resistance_project/docking/5319283d3047ac55/Q9UM73_WT/docked/molecule_0010_out.pdbqt
 OpenBabel09232609193D

 60 64  0  0  1  0  0  0  0  0999 V2000
   27.7500   50.9190    5.8320 C   0  0  2  0  0  0  0  0  0  0  0  0
   28.7730   50.6270    6.7040 C   0  0  0  0  0  0  0  0  0  0  0  0
   30.1110   50.7860    6.3580 C   0  0  0  0  0  0  0  0  0  0  0  0
   30.4420   51.2390    5.1360 N   0  0  0  0  0  0  0  0  0  0  0  0
   31.4200   51.3590    4.8730 H   0  0  0  0  0  0  0  0  0  0  0  0
   29.4530   51.5340    4.2570 C   0  0  0  0  0  0  0  0  0  0  0  0
   28.1130   51.3850    4.5750 C   0  0  0  0  0  0  0  0  0  0  0  0
   26.3560   50.7420    6.2270 C   0  0  0  0  0  0  0  0  0  0  0  0
   25.5600   51.7830    6.6540 C   0  0  0  0  0  0  0  0  0  0  0  0
   24.2780   51.6400    7.0210 N   0  0  0  0  0  0  0  0  0  0  0  0
   23.7310   50.4110    6.9720 C   0  0  0  0  0  0  0  0  0  0  0  0
   23.7310   52.4430    7.3310 H   0  0  0  0  0  0  0  0  0  0  0  0
   22.4000   50.2440    7.3510 C   0  0  0  0  0  0  0  0  0  0  0  0
   24.4760   49.3120    6.5510 C   0  0  0  0  0  0  0  0  0  0  0  0
   21.8420   48.9710    7.2970 C   0  0  1  0  0  0  0  0  0  0  0  0
   22.5800   47.8730    6.8780 C   0  0  0  0  0  0  0  0  0  0  0  0
   20.0360   48.6850    7.7990 Br  0  0  0  0  0  0  0  0  0  0  0  0
   23.9160   48.0450    6.5000 C   0  0  0  0  0  0  0  0  0  0  0  0
   25.7950   49.4940    6.1790 C   0  0  0  0  0  0  0  0  0  0  0  0
   26.0940   53.0630    6.7170 O   0  0  0  0  0  0  0  0  0  0  0  0
   26.6900   53.5950    7.8720 C   0  0  0  0  0  0  0  0  0  0  0  0
   27.8320   54.4960    7.5320 C   0  0  0  0  0  0  0  0  0  0  0  0
   28.8760   54.0730    6.9950 O   0  0  0  0  0  0  0  0  0  0  0  0
   27.6660   55.8430    7.8510 O   0  0  0  0  0  0  0  0  0  0  0  0
   31.0650   50.4470    7.3540 N   0  0  0  0  0  0  0  0  0  0  0  0
   31.4880   51.2170    7.8720 H   0  0  0  0  0  0  0  0  0  0  0  0
   31.4810   49.1500    7.6900 C   0  0  0  0  0  0  0  0  0  0  0  0
   30.5060   48.1690    7.8940 C   0  0  0  0  0  0  0  0  0  0  0  0
   30.8680   46.8720    8.2280 C   0  0  0  0  0  0  0  0  0  0  0  0
   32.1790   46.5160    8.3680 C   0  0  0  0  0  0  0  0  0  0  0  0
   33.1470   47.4530    8.1750 C   0  0  0  0  0  0  0  0  0  0  0  0
   32.7950   48.7570    7.8390 C   0  0  0  0  0  0  0  0  0  0  0  0
   32.5020   45.1780    8.7100 N   0  0  0  0  0  0  0  0  0  0  0  0
   31.6500   44.0450    8.3300 C   0  0  0  0  0  0  0  0  0  0  0  0
   31.3790   43.3220    9.6550 C   0  0  0  0  0  0  0  0  0  0  0  0
   32.5860   42.8080   10.0890 O   0  0  0  0  0  0  0  0  0  0  0  0
   33.5300   43.7420   10.4380 C   0  0  0  0  0  0  0  0  0  0  0  0
   33.7030   44.8640    9.4590 C   0  0  0  0  0  0  0  0  0  0  0  0
   28.5400   50.2781    7.6469 H   0  0  0  0  0  0  0  0  0  0  0  0
   29.7070   51.8814    3.3190 H   0  0  0  0  0  0  0  0  0  0  0  0
   27.3868   51.6195    3.8802 H   0  0  0  0  0  0  0  0  0  0  0  0
   21.8385   51.0505    7.6661 H   0  0  0  0  0  0  0  0  0  0  0  0
   22.1467   46.9369    6.8455 H   0  0  0  0  0  0  0  0  0  0  0  0
   24.4780   47.2381    6.1869 H   0  0  0  0  0  0  0  0  0  0  0  0
   26.3576   48.6880    5.8647 H   0  0  0  0  0  0  0  0  0  0  0  0
   27.0500   52.7911    8.4795 H   0  0  0  0  0  0  0  0  0  0  0  0
   25.9542   54.1681    8.3965 H   0  0  0  0  0  0  0  0  0  0  0  0
   26.8719   56.1346    8.2539 H   0  0  0  0  0  0  0  0  0  0  0  0
   29.5079   48.4119    7.7952 H   0  0  0  0  0  0  0  0  0  0  0  0
   30.1326   46.1627    8.3734 H   0  0  0  0  0  0  0  0  0  0  0  0
   34.1414   47.1968    8.2777 H   0  0  0  0  0  0  0  0  0  0  0  0
   33.5427   49.4539    7.6964 H   0  0  0  0  0  0  0  0  0  0  0  0
   32.1579   43.4012    7.6427 H   0  0  0  0  0  0  0  0  0  0  0  0
   30.7510   44.3532    7.8383 H   0  0  0  0  0  0  0  0  0  0  0  0
   30.6753   42.5302    9.5043 H   0  0  0  0  0  0  0  0  0  0  0  0
   30.9674   43.9936   10.3792 H   0  0  0  0  0  0  0  0  0  0  0  0
   33.2473   44.1638   11.3798 H   0  0  0  0  0  0  0  0  0  0  0  0
   34.4660   43.2244   10.4683 H   0  0  0  0  0  0  0  0  0  0  0  0
   34.0028   45.7385    9.9978 H   0  0  0  0  0  0  0  0  0  0  0  0
   34.4387   44.5476    8.7495 H   0  0  0  0  0  0  0  0  0  0  0  0
  1  8  1  1  0  0  0
  1  2  1  0  0  0  0
  2 39  1  0  0  0  0
  3  2  2  0  0  0  0
  3 25  1  0  0  0  0
  4  3  1  0  0  0  0
  5  4  1  0  0  0  0
  6  7  2  0  0  0  0
  6  4  1  0  0  0  0
  6 40  1  0  0  0  0
  7  1  1  0  0  0  0
  7 41  1  0  0  0  0
  8  9  2  0  0  0  0
  9 20  1  0  0  0  0
  9 10  1  0  0  0  0
 10 12  1  0  0  0  0
 11 10  1  0  0  0  0
 11 13  2  0  0  0  0
 13 42  1  0  0  0  0
 14 11  1  0  0  0  0
 15 13  1  0  0  0  0
 15 17  1  1  0  0  0
 16 15  1  0  0  0  0
 16 43  1  0  0  0  0
 18 14  1  0  0  0  0
 18 16  2  0  0  0  0
 18 44  1  0  0  0  0
 19  8  1  0  0  0  0
 19 14  2  0  0  0  0
 19 45  1  0  0  0  0
 20 21  1  0  0  0  0
 21 46  1  0  0  0  0
 21 47  1  0  0  0  0
 22 24  1  0  0  0  0
 22 21  1  0  0  0  0
 23 22  2  0  0  0  0
 24 48  1  0  0  0  0
 25 27  1  0  0  0  0
 25 26  1  0  0  0  0
 27 32  2  0  0  0  0
 27 28  1  0  0  0  0
 28 29  2  0  0  0  0
 28 49  1  0  0  0  0
 29 30  1  0  0  0  0
 29 50  1  0  0  0  0
 30 33  1  0  0  0  0
 31 30  2  0  0  0  0
 31 51  1  0  0  0  0
 32 31  1  0  0  0  0
 32 52  1  0  0  0  0
 33 38  1  0  0  0  0
 34 33  1  0  0  0  0
 34 35  1  0  0  0  0
 34 53  1  0  0  0  0
 34 54  1  0  0  0  0
 35 36  1  0  0  0  0
 35 55  1  0  0  0  0
 35 56  1  0  0  0  0
 36 37  1  0  0  0  0
 37 57  1  0  0  0  0
 37 58  1  0  0  0  0
 38 37  1  0  0  0  0
 38 59  1  0  0  0  0
 38 60  1  0  0  0  0
M  END
>  <REMARK>
 VINA RESULT:      -7.9      3.859      6.688
  7 active torsions:
  status: ('A' for Active; 'I' for Inactive)
    1  A    between atoms: C_2  and  C_4 
    2  A    between atoms: C_4  and  O_5 
    3  A    between atoms: O_5  and  C_6 
    4  A    between atoms: C_7  and  C_8 
    5  A    between atoms: C_10  and  N_11 
    6  A    between atoms: N_11  and  C_13 
    7  A    between atoms: C_16  and  N_17 

>  <TORSDO>
F 7

$$$$
resistance_project/docking/5319283d3047ac55/Q9UM73_WT/docked/molecule_0010_out.pdbqt
 OpenBabel09232609193D

 60 64  0  0  1  0  0  0  0  0999 V2000
   33.0610   43.9260    9.1060 C   0  0  2  0  0  0  0  0  0  0  0  0
   34.3020   43.9810    8.5140 C   0  0  0  0  0  0  0  0  0  0  0  0
   35.3260   43.1020    8.8540 C   0  0  0  0  0  0  0  0  0  0  0  0
   35.1190   42.1570    9.7880 N   0  0  0  0  0  0  0  0  0  0  0  0
   35.8640   41.5080   10.0440 H   0  0  0  0  0  0  0  0  0  0  0  0
   33.9050   42.0810   10.3870 C   0  0  0  0  0  0  0  0  0  0  0  0
   32.8690   42.9430   10.0670 C   0  0  0  0  0  0  0  0  0  0  0  0
   32.0090   44.8630    8.7250 C   0  0  0  0  0  0  0  0  0  0  0  0
   32.2220   45.9220    7.8680 C   0  0  0  0  0  0  0  0  0  0  0  0
   31.2680   46.7930    7.5070 N   0  0  0  0  0  0  0  0  0  0  0  0
   30.0290   46.6300    8.0080 C   0  0  0  0  0  0  0  0  0  0  0  0
   31.4770   47.5610    6.8690 H   0  0  0  0  0  0  0  0  0  0  0  0
   29.0260   47.5270    7.6430 C   0  0  0  0  0  0  0  0  0  0  0  0
   29.7410   45.5830    8.8790 C   0  0  0  0  0  0  0  0  0  0  0  0
   27.7480   47.3520    8.1640 C   0  0  0  0  0  0  0  0  0  0  0  0
   27.4560   46.3100    9.0330 C   0  0  0  0  0  0  0  0  0  0  0  0
   26.3450   48.5410    7.7020 Br  0  0  0  0  0  0  0  0  0  0  0  0
   28.4660   45.4130    9.3970 C   0  0  0  0  0  0  0  0  0  0  0  0
   30.7460   44.7020    9.2310 C   0  0  0  0  0  0  0  0  0  0  0  0
   33.4880   46.1170    7.3350 O   0  0  0  0  0  0  0  0  0  0  0  0
   34.0060   47.3840    7.0200 C   0  0  0  0  0  0  0  0  0  0  0  0
   34.8080   47.9440    8.1490 C   0  0  0  0  0  0  0  0  0  0  0  0
   34.8000   47.4340    9.2880 O   0  0  0  0  0  0  0  0  0  0  0  0
   35.5700   49.0750    7.8570 O   0  0  0  0  0  0  0  0  0  0  0  0
   36.5570   43.2710    8.1660 N   0  0  0  0  0  0  0  0  0  0  0  0
   37.1150   42.4330    8.0030 H   0  0  0  0  0  0  0  0  0  0  0  0
   37.0760   44.4840    7.6920 C   0  0  0  0  0  0  0  0  0  0  0  0
   37.7040   45.3410    8.6000 C   0  0  0  0  0  0  0  0  0  0  0  0
   38.2340   46.5530    8.1800 C   0  0  0  0  0  0  0  0  0  0  0  0
   38.1580   46.9420    6.8730 C   0  0  0  0  0  0  0  0  0  0  0  0
   37.5510   46.1270    5.9690 C   0  0  0  0  0  0  0  0  0  0  0  0
   37.0170   44.9090    6.3800 C   0  0  0  0  0  0  0  0  0  0  0  0
   38.7140   48.1890    6.4870 N   0  0  0  0  0  0  0  0  0  0  0  0
   39.5550   48.9850    7.3910 C   0  0  0  0  0  0  0  0  0  0  0  0
   38.8790   50.3610    7.4110 C   0  0  0  0  0  0  0  0  0  0  0  0
   39.0100   50.8950    6.1420 O   0  0  0  0  0  0  0  0  0  0  0  0
   38.3240   50.2330    5.1550 C   0  0  0  0  0  0  0  0  0  0  0  0
   38.4760   48.7410    5.1680 C   0  0  0  0  0  0  0  0  0  0  0  0
   34.4794   44.6983    7.7936 H   0  0  0  0  0  0  0  0  0  0  0  0
   33.7476   41.3568   11.1052 H   0  0  0  0  0  0  0  0  0  0  0  0
   31.9570   42.8546   10.5418 H   0  0  0  0  0  0  0  0  0  0  0  0
   29.2280   48.3068    6.9979 H   0  0  0  0  0  0  0  0  0  0  0  0
   26.5011   46.1977    9.4078 H   0  0  0  0  0  0  0  0  0  0  0  0
   28.2646   44.6341   10.0433 H   0  0  0  0  0  0  0  0  0  0  0  0
   30.8331   44.7432   10.2967 H   0  0  0  0  0  0  0  0  0  0  0  0
   33.1946   48.0482    6.8070 H   0  0  0  0  0  0  0  0  0  0  0  0
   34.6482   47.2822    6.1702 H   0  0  0  0  0  0  0  0  0  0  0  0
   34.2789   46.6739    9.4573 H   0  0  0  0  0  0  0  0  0  0  0  0
   37.7744   45.0697    9.5932 H   0  0  0  0  0  0  0  0  0  0  0  0
   38.6934   47.1709    8.8671 H   0  0  0  0  0  0  0  0  0  0  0  0
   37.4864   46.4114    4.9791 H   0  0  0  0  0  0  0  0  0  0  0  0
   36.5614   44.3030    5.6799 H   0  0  0  0  0  0  0  0  0  0  0  0
   40.5543   49.0576    7.0155 H   0  0  0  0  0  0  0  0  0  0  0  0
   39.6363   48.5519    8.3660 H   0  0  0  0  0  0  0  0  0  0  0  0
   37.8438   50.2581    7.6612 H   0  0  0  0  0  0  0  0  0  0  0  0
   39.3319   50.9981    8.1417 H   0  0  0  0  0  0  0  0  0  0  0  0
   37.2843   50.4616    5.2630 H   0  0  0  0  0  0  0  0  0  0  0  0
   38.7387   50.5675    4.2271 H   0  0  0  0  0  0  0  0  0  0  0  0
   39.3016   48.4805    4.5392 H   0  0  0  0  0  0  0  0  0  0  0  0
   37.5511   48.3303    4.8204 H   0  0  0  0  0  0  0  0  0  0  0  0
  1  8  1  6  0  0  0
  1  7  1  0  0  0  0
  2  3  2  0  0  0  0
  2  1  1  0  0  0  0
  2 39  1  0  0  0  0
  3  4  1  0  0  0  0
  4  5  1  0  0  0  0
  4  6  1  0  0  0  0
  6 40  1  0  0  0  0
  7  6  2  0  0  0  0
  7 41  1  0  0  0  0
  8 19  1  0  0  0  0
  9  8  2  0  0  0  0
 10  9  1  0  0  0  0
 10 11  1  0  0  0  0
 11 14  2  0  0  0  0
 12 10  1  0  0  0  0
 13 11  1  0  0  0  0
 13 15  2  0  0  0  0
 13 42  1  0  0  0  0
 14 19  1  0  0  0  0
 14 18  1  0  0  0  0
 15 16  1  0  0  0  0
 16 18  2  0  0  0  0
 16 43  1  0  0  0  0
 17 15  1  0  0  0  0
 18 44  1  0  0  0  0
 19 45  1  0  0  0  0
 20  9  1  0  0  0  0
 21 20  1  0  0  0  0
 21 22  1  0  0  0  0
 21 46  1  0  0  0  0
 21 47  1  0  0  0  0
 22 23  1  0  0  0  0
 23 48  1  0  0  0  0
 24 22  2  0  0  0  0
 25  3  1  0  0  0  0
 26 25  1  0  0  0  0
 27 25  1  0  0  0  0
 27 28  2  0  0  0  0
 28 49  1  0  0  0  0
 29 28  1  0  0  0  0
 29 50  1  0  0  0  0
 30 29  2  0  0  0  0
 31 32  2  0  0  0  0
 31 30  1  0  0  0  0
 31 51  1  0  0  0  0
 32 27  1  0  0  0  0
 32 52  1  0  0  0  0
 33 30  1  0  0  0  0
 33 34  1  0  0  0  0
 34 35  1  0  0  0  0
 34 53  1  0  0  0  0
 34 54  1  0  0  0  0
 35 55  1  0  0  0  0
 35 56  1  0  0  0  0
 36 35  1  0  0  0  0
 37 38  1  0  0  0  0
 37 36  1  0  0  0  0
 37 57  1  0  0  0  0
 37 58  1  0  0  0  0
 38 33  1  0  0  0  0
 38 59  1  0  0  0  0
 38 60  1  0  0  0  0
M  END
>  <REMARK>
 VINA RESULT:      -7.8      2.383      4.392
  7 active torsions:
  status: ('A' for Active; 'I' for Inactive)
    1  A    between atoms: C_2  and  C_4 
    2  A    between atoms: C_4  and  O_5 
    3  A    between atoms: O_5  and  C_6 
    4  A    between atoms: C_7  and  C_8 
    5  A    between atoms: C_10  and  N_11 
    6  A    between atoms: N_11  and  C_13 
    7  A    between atoms: C_16  and  N_17 

>  <TORSDO>
F 7

$$$$
resistance_project/docking/5319283d3047ac55/Q9UM73_WT/docked/molecule_0010_out.pdbqt
 OpenBabel09232609193D

 60 64  0  0  1  0  0  0  0  0999 V2000
   32.2240   47.0160    7.4240 C   0  0  2  0  0  0  0  0  0  0  0  0
   33.2010   47.8390    7.9350 C   0  0  0  0  0  0  0  0  0  0  0  0
   34.5530   47.5210    7.8610 C   0  0  0  0  0  0  0  0  0  0  0  0
   34.9440   46.3760    7.2740 N   0  0  0  0  0  0  0  0  0  0  0  0
   35.9330   46.1340    7.2150 H   0  0  0  0  0  0  0  0  0  0  0  0
   34.0020   45.5470    6.7620 C   0  0  0  0  0  0  0  0  0  0  0  0
   32.6490   45.8400    6.8220 C   0  0  0  0  0  0  0  0  0  0  0  0
   30.8140   47.3810    7.5180 C   0  0  0  0  0  0  0  0  0  0  0  0
   29.9350   46.7600    8.3810 C   0  0  0  0  0  0  0  0  0  0  0  0
   28.6370   47.0820    8.4810 N   0  0  0  0  0  0  0  0  0  0  0  0
   28.1580   48.0660    7.6980 C   0  0  0  0  0  0  0  0  0  0  0  0
   28.0270   46.5910    9.1350 H   0  0  0  0  0  0  0  0  0  0  0  0
   26.8110   48.4120    7.7890 C   0  0  0  0  0  0  0  0  0  0  0  0
   28.9880   48.7370    6.8030 C   0  0  0  0  0  0  0  0  0  0  0  0
   26.3230   49.4310    6.9770 C   0  0  1  0  0  0  0  0  0  0  0  0
   27.1460   50.1020    6.0840 C   0  0  0  0  0  0  0  0  0  0  0  0
   24.5000   49.9440    7.0590 Br  0  0  0  0  0  0  0  0  0  0  0  0
   28.4980   49.7510    5.9950 C   0  0  0  0  0  0  0  0  0  0  0  0
   30.3210   48.3820    6.7240 C   0  0  0  0  0  0  0  0  0  0  0  0
   30.3980   45.7410    9.2010 O   0  0  0  0  0  0  0  0  0  0  0  0
   30.0670   44.3890    9.0140 C   0  0  0  0  0  0  0  0  0  0  0  0
   29.1320   43.9030   10.0730 C   0  0  0  0  0  0  0  0  0  0  0  0
   29.3220   42.8350   10.6890 O   0  0  0  0  0  0  0  0  0  0  0  0
   28.0280   44.7150   10.3350 O   0  0  0  0  0  0  0  0  0  0  0  0
   35.4550   48.4590    8.4300 N   0  0  0  0  0  0  0  0  0  0  0  0
   35.7430   48.2980    9.3950 H   0  0  0  0  0  0  0  0  0  0  0  0
   35.9850   49.5870    7.7880 C   0  0  0  0  0  0  0  0  0  0  0  0
   37.0720   50.2400    8.3760 C   0  0  0  0  0  0  0  0  0  0  0  0
   37.6320   51.3600    7.7790 C   0  0  0  0  0  0  0  0  0  0  0  0
   37.1400   51.8570    6.6060 C   0  0  0  0  0  0  0  0  0  0  0  0
   36.0820   51.2400    6.0130 C   0  0  0  0  0  0  0  0  0  0  0  0
   35.5130   50.1150    6.6040 C   0  0  0  0  0  0  0  0  0  0  0  0
   37.7440   53.0040    6.0310 N   0  0  0  0  0  0  0  0  0  0  0  0
   38.9940   52.9300    5.2640 C   0  0  0  0  0  0  0  0  0  0  0  0
   39.9100   53.9520    5.9470 C   0  0  0  0  0  0  0  0  0  0  0  0
   39.3600   55.2010    5.7270 O   0  0  0  0  0  0  0  0  0  0  0  0
   38.1490   55.4230    6.3340 C   0  0  0  0  0  0  0  0  0  0  0  0
   37.1480   54.3180    6.1740 C   0  0  0  0  0  0  0  0  0  0  0  0
   32.9211   48.7226    8.3888 H   0  0  0  0  0  0  0  0  0  0  0  0
   34.3024   44.6680    6.3124 H   0  0  0  0  0  0  0  0  0  0  0  0
   31.9594   45.1857    6.4202 H   0  0  0  0  0  0  0  0  0  0  0  0
   26.1863   47.9208    8.4474 H   0  0  0  0  0  0  0  0  0  0  0  0
   26.7641   50.8544    5.4898 H   0  0  0  0  0  0  0  0  0  0  0  0
   29.1225   50.2413    5.3357 H   0  0  0  0  0  0  0  0  0  0  0  0
   30.9463   48.8721    6.0654 H   0  0  0  0  0  0  0  0  0  0  0  0
   30.9625   43.8042    9.0457 H   0  0  0  0  0  0  0  0  0  0  0  0
   29.5810   44.2902    8.0658 H   0  0  0  0  0  0  0  0  0  0  0  0
   30.0719   42.3083   10.4933 H   0  0  0  0  0  0  0  0  0  0  0  0
   37.4619   49.8853    9.2632 H   0  0  0  0  0  0  0  0  0  0  0  0
   38.4350   51.8261    8.2295 H   0  0  0  0  0  0  0  0  0  0  0  0
   35.7017   51.6056    5.1260 H   0  0  0  0  0  0  0  0  0  0  0  0
   34.7107   49.6605    6.1405 H   0  0  0  0  0  0  0  0  0  0  0  0
   39.4147   51.9476    5.3164 H   0  0  0  0  0  0  0  0  0  0  0  0
   38.8513   53.1357    4.2237 H   0  0  0  0  0  0  0  0  0  0  0  0
   40.8923   53.9040    5.5254 H   0  0  0  0  0  0  0  0  0  0  0  0
   39.9912   53.7506    6.9947 H   0  0  0  0  0  0  0  0  0  0  0  0
   37.7281   56.3148    5.9188 H   0  0  0  0  0  0  0  0  0  0  0  0
   38.3490   55.4959    7.3826 H   0  0  0  0  0  0  0  0  0  0  0  0
   36.5148   54.3091    7.0365 H   0  0  0  0  0  0  0  0  0  0  0  0
   36.6083   54.5150    5.2714 H   0  0  0  0  0  0  0  0  0  0  0  0
  1  8  1  6  0  0  0
  1  2  1  0  0  0  0
  2 39  1  0  0  0  0
  3  2  2  0  0  0  0
  3 25  1  0  0  0  0
  4  3  1  0  0  0  0
  5  4  1  0  0  0  0
  6  7  2  0  0  0  0
  6  4  1  0  0  0  0
  6 40  1  0  0  0  0
  7  1  1  0  0  0  0
  7 41  1  0  0  0  0
  8  9  2  0  0  0  0
  9 10  1  0  0  0  0
  9 20  1  0  0  0  0
 10 12  1  0  0  0  0
 11 13  2  0  0  0  0
 11 10  1  0  0  0  0
 13 42  1  0  0  0  0
 14 11  1  0  0  0  0
 15 17  1  6  0  0  0
 15 13  1  0  0  0  0
 16 15  1  0  0  0  0
 16 43  1  0  0  0  0
 18 16  2  0  0  0  0
 18 14  1  0  0  0  0
 18 44  1  0  0  0  0
 19 14  2  0  0  0  0
 19  8  1  0  0  0  0
 19 45  1  0  0  0  0
 21 20  1  0  0  0  0
 21 22  1  0  0  0  0
 21 46  1  0  0  0  0
 21 47  1  0  0  0  0
 22 24  2  0  0  0  0
 22 23  1  0  0  0  0
 23 48  1  0  0  0  0
 25 26  1  0  0  0  0
 27 28  2  0  0  0  0
 27 25  1  0  0  0  0
 28 49  1  0  0  0  0
 29 28  1  0  0  0  0
 29 50  1  0  0  0  0
 30 29  2  0  0  0  0
 31 32  2  0  0  0  0
 31 30  1  0  0  0  0
 31 51  1  0  0  0  0
 32 27  1  0  0  0  0
 32 52  1  0  0  0  0
 33 38  1  0  0  0  0
 33 30  1  0  0  0  0
 34 35  1  0  0  0  0
 34 33  1  0  0  0  0
 34 53  1  0  0  0  0
 34 54  1  0  0  0  0
 35 55  1  0  0  0  0
 35 56  1  0  0  0  0
 36 35  1  0  0  0  0
 36 37  1  0  0  0  0
 37 57  1  0  0  0  0
 37 58  1  0  0  0  0
 38 37  1  0  0  0  0
 38 59  1  0  0  0  0
 38 60  1  0  0  0  0
M  END
>  <REMARK>
 VINA RESULT:      -7.7      4.404      6.199
  7 active torsions:
  status: ('A' for Active; 'I' for Inactive)
    1  A    between atoms: C_2  and  C_4 
    2  A    between atoms: C_4  and  O_5 
    3  A    between atoms: O_5  and  C_6 
    4  A    between atoms: C_7  and  C_8 
    5  A    between atoms: C_10  and  N_11 
    6  A    between atoms: N_11  and  C_13 
    7  A    between atoms: C_16  and  N_17 

>  <TORSDO>
F 7

$$$$
resistance_project/docking/5319283d3047ac55/Q9UM73_WT/docked/molecule_0010_out.pdbqt
 OpenBabel09232609193D

 60 64  0  0  1  0  0  0  0  0999 V2000
   28.8150   46.9400    8.3850 C   0  0  2  0  0  0  0  0  0  0  0  0
   29.9960   46.2370    8.4630 C   0  0  0  0  0  0  0  0  0  0  0  0
   30.0890   45.0130    9.1180 C   0  0  0  0  0  0  0  0  0  0  0  0
   29.0020   44.4770    9.7010 N   0  0  0  0  0  0  0  0  0  0  0  0
   29.0600   43.5810   10.1840 H   0  0  0  0  0  0  0  0  0  0  0  0
   27.8260   45.1500    9.6390 C   0  0  0  0  0  0  0  0  0  0  0  0
   27.7060   46.3690    8.9930 C   0  0  0  0  0  0  0  0  0  0  0  0
   28.7530   48.2210    7.6890 C   0  0  0  0  0  0  0  0  0  0  0  0
   27.5660   48.8040    7.2970 C   0  0  0  0  0  0  0  0  0  0  0  0
   27.4880   49.9800    6.6580 N   0  0  0  0  0  0  0  0  0  0  0  0
   28.6310   50.6350    6.3790 C   0  0  0  0  0  0  0  0  0  0  0  0
   26.5850   50.3690    6.3880 H   0  0  0  0  0  0  0  0  0  0  0  0
   28.5680   51.8590    5.7150 C   0  0  0  0  0  0  0  0  0  0  0  0
   29.8660   50.1060    6.7450 C   0  0  0  0  0  0  0  0  0  0  0  0
   29.7540   52.5300    5.4310 C   0  0  0  0  0  0  0  0  0  0  0  0
   30.9870   52.0070    5.7940 C   0  0  0  0  0  0  0  0  0  0  0  0
   29.7290   54.1970    4.5290 Br  0  0  0  0  0  0  0  0  0  0  0  0
   31.0450   50.7780    6.4600 C   0  0  0  0  0  0  0  0  0  0  0  0
   29.9120   48.8920    7.4040 C   0  0  0  0  0  0  0  0  0  0  0  0
   26.3700   48.1540    7.5690 O   0  0  0  0  0  0  0  0  0  0  0  0
   25.1300   48.8110    7.6260 C   0  0  0  0  0  0  0  0  0  0  0  0
   24.3360   48.5900    6.3810 C   0  0  0  0  0  0  0  0  0  0  0  0
   24.3060   49.4250    5.4540 O   0  0  0  0  0  0  0  0  0  0  0  0
   23.6260   47.3920    6.3110 O   0  0  0  0  0  0  0  0  0  0  0  0
   31.3680   44.3960    9.1240 N   0  0  0  0  0  0  0  0  0  0  0  0
   31.4170   43.4360    9.4640 H   0  0  0  0  0  0  0  0  0  0  0  0
   32.5700   44.9850    8.7060 C   0  0  0  0  0  0  0  0  0  0  0  0
   33.4130   45.5390    9.6740 C   0  0  0  0  0  0  0  0  0  0  0  0
   34.6130   46.1330    9.3110 C   0  0  0  0  0  0  0  0  0  0  0  0
   35.0040   46.1970    8.0040 C   0  0  0  0  0  0  0  0  0  0  0  0
   34.2010   45.6660    7.0420 C   0  0  0  0  0  0  0  0  0  0  0  0
   32.9950   45.0670    7.3960 C   0  0  0  0  0  0  0  0  0  0  0  0
   36.2390   46.8130    7.6780 N   0  0  0  0  0  0  0  0  0  0  0  0
   37.5270   46.1340    7.8660 C   0  0  0  0  0  0  0  0  0  0  0  0
   38.3420   47.1130    8.7190 C   0  0  0  0  0  0  0  0  0  0  0  0
   38.5720   48.2330    7.9430 O   0  0  0  0  0  0  0  0  0  0  0  0
   37.4550   48.9640    7.6240 C   0  0  0  0  0  0  0  0  0  0  0  0
   36.2880   48.1580    7.1380 C   0  0  0  0  0  0  0  0  0  0  0  0
   30.8410   46.6312    8.0207 H   0  0  0  0  0  0  0  0  0  0  0  0
   26.9925   44.7398   10.0884 H   0  0  0  0  0  0  0  0  0  0  0  0
   26.7942   46.8515    8.9638 H   0  0  0  0  0  0  0  0  0  0  0  0
   27.6583   52.2605    5.4389 H   0  0  0  0  0  0  0  0  0  0  0  0
   31.8547   52.5207    5.5743 H   0  0  0  0  0  0  0  0  0  0  0  0
   31.9546   50.3762    6.7360 H   0  0  0  0  0  0  0  0  0  0  0  0
   30.4050   49.0663    8.3375 H   0  0  0  0  0  0  0  0  0  0  0  0
   24.5767   48.4374    8.4622 H   0  0  0  0  0  0  0  0  0  0  0  0
   25.3106   49.8608    7.7271 H   0  0  0  0  0  0  0  0  0  0  0  0
   23.6655   46.7818    7.0210 H   0  0  0  0  0  0  0  0  0  0  0  0
   33.1398   45.5057   10.6686 H   0  0  0  0  0  0  0  0  0  0  0  0
   35.2213   46.5338   10.0419 H   0  0  0  0  0  0  0  0  0  0  0  0
   34.4858   45.7073    6.0509 H   0  0  0  0  0  0  0  0  0  0  0  0
   32.3985   44.6707    6.6529 H   0  0  0  0  0  0  0  0  0  0  0  0
   38.0059   45.9597    6.9251 H   0  0  0  0  0  0  0  0  0  0  0  0
   37.4228   45.1742    8.3273 H   0  0  0  0  0  0  0  0  0  0  0  0
   39.2717   46.6662    9.0034 H   0  0  0  0  0  0  0  0  0  0  0  0
   37.8136   47.3707    9.6130 H   0  0  0  0  0  0  0  0  0  0  0  0
   37.1478   49.4993    8.4981 H   0  0  0  0  0  0  0  0  0  0  0  0
   37.7367   49.6019    6.8124 H   0  0  0  0  0  0  0  0  0  0  0  0
   36.3450   48.0913    6.0716 H   0  0  0  0  0  0  0  0  0  0  0  0
   35.4033   48.6594    7.4708 H   0  0  0  0  0  0  0  0  0  0  0  0
  1  8  1  6  0  0  0
  1  2  1  0  0  0  0
  1  7  1  0  0  0  0
  2  3  2  0  0  0  0
  2 39  1  0  0  0  0
  3 25  1  0  0  0  0
  3  4  1  0  0  0  0
  4  5  1  0  0  0  0
  6  4  1  0  0  0  0
  6 40  1  0  0  0  0
  7  6  2  0  0  0  0
  7 41  1  0  0  0  0
  9 20  1  0  0  0  0
  9  8  2  0  0  0  0
 10  9  1  0  0  0  0
 11 10  1  0  0  0  0
 11 14  2  0  0  0  0
 12 10  1  0  0  0  0
 13 11  1  0  0  0  0
 13 42  1  0  0  0  0
 14 19  1  0  0  0  0
 15 13  2  0  0  0  0
 15 16  1  0  0  0  0
 16 18  2  0  0  0  0
 16 43  1  0  0  0  0
 17 15  1  0  0  0  0
 18 14  1  0  0  0  0
 18 44  1  0  0  0  0
 19  8  1  0  0  0  0
 19 45  1  0  0  0  0
 20 21  1  0  0  0  0
 21 46  1  0  0  0  0
 21 47  1  0  0  0  0
 22 21  1  0  0  0  0
 23 22  2  0  0  0  0
 24 22  1  0  0  0  0
 24 48  1  0  0  0  0
 25 26  1  0  0  0  0
 27 25  1  0  0  0  0
 27 28  2  0  0  0  0
 28 49  1  0  0  0  0
 29 28  1  0  0  0  0
 29 50  1  0  0  0  0
 30 29  2  0  0  0  0
 31 32  2  0  0  0  0
 31 30  1  0  0  0  0
 31 51  1  0  0  0  0
 32 27  1  0  0  0  0
 32 52  1  0  0  0  0
 33 34  1  0  0  0  0
 33 30  1  0  0  0  0
 34 35  1  0  0  0  0
 34 53  1  0  0  0  0
 34 54  1  0  0  0  0
 35 55  1  0  0  0  0
 35 56  1  0  0  0  0
 36 35  1  0  0  0  0
 37 36  1  0  0  0  0
 37 57  1  0  0  0  0
 37 58  1  0  0  0  0
 38 37  1  0  0  0  0
 38 33  1  0  0  0  0
 38 59  1  0  0  0  0
 38 60  1  0  0  0  0
M  END
>  <REMARK>
 VINA RESULT:      -7.6      2.644      4.053
  7 active torsions:
  status: ('A' for Active; 'I' for Inactive)
    1  A    between atoms: C_2  and  C_4 
    2  A    between atoms: C_4  and  O_5 
    3  A    between atoms: O_5  and  C_6 
    4  A    between atoms: C_7  and  C_8 
    5  A    between atoms: C_10  and  N_11 
    6  A    between atoms: N_11  and  C_13 
    7  A    between atoms: C_16  and  N_17 

>  <TORSDO>
F 7

$$$$
