resistance_project/docking/5319283d3047ac55/Q9UM73_WT/docked/molecule_0002_out.pdbqt
 OpenBabel09232609183D

 56 59  0  0  1  0  0  0  0  0999 V2000
   26.0230   50.0730    5.4460 C   0  0  0  0  0  0  0  0  0  0  0  0
   25.2700   49.3300    6.3030 C   0  0  0  0  0  0  0  0  0  0  0  0
   25.8830   48.6330    7.3230 C   0  0  0  0  0  0  0  0  0  0  0  0
   27.2460   48.6410    7.5350 C   0  0  0  0  0  0  0  0  0  0  0  0
   28.0060   49.3910    6.6690 C   0  0  0  0  0  0  0  0  0  0  0  0
   27.4100   50.0940    5.6440 C   0  0  0  0  0  0  0  0  0  0  0  0
   27.8090   47.8900    8.6160 N   0  0  0  0  0  0  0  0  0  0  0  0
   28.7750   46.9030    8.3980 C   0  0  0  0  0  0  0  0  0  0  0  0
   29.2010   46.7180    7.2290 O   0  0  0  0  0  0  0  0  0  0  0  0
   29.3290   46.0690    9.4130 N   0  0  0  0  0  0  0  0  0  0  0  0
   28.9880   46.1430   10.3720 H   0  0  0  0  0  0  0  0  0  0  0  0
   27.4990   48.0800    9.5680 H   0  0  0  0  0  0  0  0  0  0  0  0
   30.3680   45.1220    9.0950 C   0  0  0  0  0  0  0  0  0  0  0  0
   30.1160   43.7780    9.0340 C   0  0  0  0  0  0  0  0  0  0  0  0
   31.1600   42.9010    8.7190 C   0  0  0  0  0  0  0  0  0  0  0  0
   32.4440   43.3940    8.4720 C   0  0  0  0  0  0  0  0  0  0  0  0
   32.6890   44.7580    8.5360 C   0  0  0  0  0  0  0  0  0  0  0  0
   31.6310   45.6110    8.8510 C   0  0  0  0  0  0  0  0  0  0  0  0
   33.4250   42.4640    8.1670 O   0  0  0  0  0  0  0  0  0  0  0  0
   34.2730   41.8960    9.1520 C   0  0  0  0  0  0  0  0  0  0  0  0
   33.8630   40.6050    9.4730 F   0  0  0  0  0  0  0  0  0  0  0  0
   35.5950   41.8980    8.7430 F   0  0  0  0  0  0  0  0  0  0  0  0
   34.2390   42.6340   10.3410 F   0  0  0  0  0  0  0  0  0  0  0  0
   25.5260   50.8510    4.3380 C   0  0  0  0  0  0  0  0  0  0  0  0
   25.4610   50.2510    3.0940 C   0  0  0  0  0  0  0  0  0  0  0  0
   24.9940   50.9190    1.9790 C   0  0  0  0  0  0  0  0  0  0  0  0
   24.5710   52.2400    2.0970 C   0  0  0  0  0  0  0  0  0  0  0  0
   24.6260   52.8540    3.3260 C   0  0  0  0  0  0  0  0  0  0  0  0
   24.3090   54.0730    3.7700 N   0  0  0  0  0  0  0  0  0  0  0  0
   25.0990   52.1590    4.4260 C   0  0  0  0  0  0  0  0  0  0  0  0
   24.5400   54.2050    5.0480 N   0  0  0  0  0  0  0  0  0  0  0  0
   23.9300   54.8130    3.1780 H   0  0  0  0  0  0  0  0  0  0  0  0
   25.0340   53.0200    5.4740 C   0  0  2  0  0  0  0  0  0  0  0  0
   24.3790   55.0380    5.6140 H   0  0  0  0  0  0  0  0  0  0  0  0
   25.4110   52.7620    6.8020 N   0  0  0  0  0  0  0  0  0  0  0  0
   24.0830   52.9730    0.9890 N   0  0  0  0  0  0  0  0  0  0  0  0
   22.6630   52.9340    0.6750 C   0  0  0  0  0  0  0  0  0  0  0  0
   24.9550   53.7830    0.1320 C   0  0  0  0  0  0  0  0  0  0  0  0
   24.2451   49.2885    6.1899 H   0  0  0  0  0  0  0  0  0  0  0  0
   25.2917   48.0770    7.9603 H   0  0  0  0  0  0  0  0  0  0  0  0
   29.0305   49.4280    6.7872 H   0  0  0  0  0  0  0  0  0  0  0  0
   28.0005   50.6501    5.0060 H   0  0  0  0  0  0  0  0  0  0  0  0
   29.1674   43.4157    9.2181 H   0  0  0  0  0  0  0  0  0  0  0  0
   30.9809   41.8859    8.6689 H   0  0  0  0  0  0  0  0  0  0  0  0
   33.6330   45.1334    8.3546 H   0  0  0  0  0  0  0  0  0  0  0  0
   31.7987   46.6280    8.9020 H   0  0  0  0  0  0  0  0  0  0  0  0
   25.7717   49.2718    2.9954 H   0  0  0  0  0  0  0  0  0  0  0  0
   24.9589   50.4420    1.0645 H   0  0  0  0  0  0  0  0  0  0  0  0
   25.7520   51.8038    6.8786 H   0  0  0  0  0  0  0  0  0  0  0  0
   24.6048   52.8860    7.4145 H   0  0  0  0  0  0  0  0  0  0  0  0
   22.4713   53.5397   -0.1860 H   0  0  0  0  0  0  0  0  0  0  0  0
   22.1034   53.3088    1.5065 H   0  0  0  0  0  0  0  0  0  0  0  0
   22.3698   51.9248    0.4736 H   0  0  0  0  0  0  0  0  0  0  0  0
   24.3709   54.2440   -0.6370 H   0  0  0  0  0  0  0  0  0  0  0  0
   25.6996   53.1565   -0.3129 H   0  0  0  0  0  0  0  0  0  0  0  0
   25.4306   54.5395    0.7206 H   0  0  0  0  0  0  0  0  0  0  0  0
  1  6  2  0  0  0  0
  1  2  1  0  0  0  0
  2  3  2  0  0  0  0
  2 39  1  0  0  0  0
  3  4  1  0  0  0  0
  3 40  1  0  0  0  0
  4  7  1  0  0  0  0
  5  4  2  0  0  0  0
  5 41  1  0  0  0  0
  6  5  1  0  0  0  0
  6 42  1  0  0  0  0
  7 12  1  0  0  0  0
  8  7  1  0  0  0  0
  8 10  1  0  0  0  0
  9  8  2  0  0  0  0
 10 11  1  0  0  0  0
 13 10  1  0  0  0  0
 14 13  1  0  0  0  0
 14 43  1  0  0  0  0
 15 14  2  0  0  0  0
 15 44  1  0  0  0  0
 16 17  2  0  0  0  0
 16 15  1  0  0  0  0
 17 18  1  0  0  0  0
 17 45  1  0  0  0  0
 18 13  2  0  0  0  0
 18 46  1  0  0  0  0
 19 16  1  0  0  0  0
 19 20  1  0  0  0  0
 20 21  1  0  0  0  0
 20 23  1  0  0  0  0
 22 20  1  0  0  0  0
 24 30  1  0  0  0  0
 24  1  1  0  0  0  0
 25 24  2  0  0  0  0
 25 47  1  0  0  0  0
 26 27  2  0  0  0  0
 26 25  1  0  0  0  0
 26 48  1  0  0  0  0
 27 28  1  0  0  0  0
 28 29  1  0  0  0  0
 28 30  2  0  0  0  0
 29 31  1  0  0  0  0
 30 33  1  0  0  0  0
 31 33  1  0  0  0  0
 31 34  1  0  0  0  0
 32 29  1  0  0  0  0
 33 35  1  6  0  0  0
 35 49  1  0  0  0  0
 35 50  1  0  0  0  0
 36 27  1  0  0  0  0
 37 36  1  0  0  0  0
 37 51  1  0  0  0  0
 37 52  1  0  0  0  0
 37 53  1  0  0  0  0
 38 36  1  0  0  0  0
 38 54  1  0  0  0  0
 38 55  1  0  0  0  0
 38 56  1  0  0  0  0
M  END
>  <MODEL>
1

>  <REMARK>
 VINA RESULT:      -7.8      0.000      0.000
  6 active torsions:
  status: ('A' for Active; 'I' for Inactive)
    1  A    between atoms: N_2  and  C_4 
    2  A    between atoms: C_7  and  C_8 
    3  A    between atoms: C_11  and  N_12 
       I    between atoms: N_12  and  C_14 
       I    between atoms: C_14  and  N_16 
    4  A    between atoms: N_16  and  C_18 
    5  A    between atoms: C_21  and  O_22 
    6  A    between atoms: O_22  and  C_23 

>  <TORSDO>
F 6

$$$$
resistance_project/docking/5319283d3047ac55/Q9UM73_WT/docked/molecule_0002_out.pdbqt
 OpenBabel09232609183D

 56 59  0  0  1  0  0  0  0  0999 V2000
   33.0610   45.3840    8.2330 C   0  0  0  0  0  0  0  0  0  0  0  0
   32.1740   44.4760    8.7240 C   0  0  0  0  0  0  0  0  0  0  0  0
   30.8690   44.8520    8.9590 C   0  0  0  0  0  0  0  0  0  0  0  0
   30.3920   46.1260    8.7200 C   0  0  0  0  0  0  0  0  0  0  0  0
   31.2880   47.0430    8.2240 C   0  0  0  0  0  0  0  0  0  0  0  0
   32.5970   46.6830    7.9840 C   0  0  0  0  0  0  0  0  0  0  0  0
   29.0220   46.4410    8.9890 N   0  0  0  0  0  0  0  0  0  0  0  0
   28.3030   47.3300    8.1830 C   0  0  0  0  0  0  0  0  0  0  0  0
   28.8600   47.8100    7.1630 O   0  0  0  0  0  0  0  0  0  0  0  0
   26.9610   47.7450    8.4280 N   0  0  0  0  0  0  0  0  0  0  0  0
   26.4750   47.4240    9.2660 H   0  0  0  0  0  0  0  0  0  0  0  0
   28.5590   46.0090    9.7880 H   0  0  0  0  0  0  0  0  0  0  0  0
   26.2860   48.6180    7.5010 C   0  0  0  0  0  0  0  0  0  0  0  0
   26.9010   49.7270    6.9840 C   0  0  0  0  0  0  0  0  0  0  0  0
   26.2010   50.5410    6.0860 C   0  0  0  0  0  0  0  0  0  0  0  0
   24.8900   50.2240    5.7240 C   0  0  0  0  0  0  0  0  0  0  0  0
   24.2750   49.0980    6.2520 C   0  0  0  0  0  0  0  0  0  0  0  0
   24.9950   48.3020    7.1450 C   0  0  0  0  0  0  0  0  0  0  0  0
   24.2620   51.0770    4.8300 O   0  0  0  0  0  0  0  0  0  0  0  0
   24.4730   51.0070    3.4290 C   0  0  0  0  0  0  0  0  0  0  0  0
   23.2890   51.2520    2.7380 F   0  0  0  0  0  0  0  0  0  0  0  0
   25.4620   51.8850    3.0230 F   0  0  0  0  0  0  0  0  0  0  0  0
   24.9070   49.7350    3.0420 F   0  0  0  0  0  0  0  0  0  0  0  0
   34.4520   45.1370    7.9400 C   0  0  0  0  0  0  0  0  0  0  0  0
   34.7790   44.6560    6.6860 C   0  0  0  0  0  0  0  0  0  0  0  0
   36.0840   44.3960    6.3160 C   0  0  0  0  0  0  0  0  0  0  0  0
   37.1140   44.6220    7.2260 C   0  0  0  0  0  0  0  0  0  0  0  0
   36.8080   45.1020    8.4780 C   0  0  0  0  0  0  0  0  0  0  0  0
   37.5330   45.4160    9.5540 N   0  0  0  0  0  0  0  0  0  0  0  0
   35.4900   45.3530    8.8200 C   0  0  0  0  0  0  0  0  0  0  0  0
   36.7900   45.8420   10.5390 N   0  0  0  0  0  0  0  0  0  0  0  0
   38.5490   45.3330    9.5990 H   0  0  0  0  0  0  0  0  0  0  0  0
   35.5120   45.8090   10.0990 C   0  0  2  0  0  0  0  0  0  0  0  0
   37.1110   46.1410   11.4600 H   0  0  0  0  0  0  0  0  0  0  0  0
   34.4070   46.1920   10.8750 N   0  0  0  0  0  0  0  0  0  0  0  0
   38.4700   44.3740    6.9020 N   0  0  0  0  0  0  0  0  0  0  0  0
   38.9640   43.0050    6.9000 C   0  0  0  0  0  0  0  0  0  0  0  0
   39.4100   45.4460    6.5640 C   0  0  0  0  0  0  0  0  0  0  0  0
   32.4775   43.5092    8.9197 H   0  0  0  0  0  0  0  0  0  0  0  0
   30.2153   44.1461    9.3323 H   0  0  0  0  0  0  0  0  0  0  0  0
   30.9785   48.0081    8.0298 H   0  0  0  0  0  0  0  0  0  0  0  0
   33.2521   47.3880    7.6114 H   0  0  0  0  0  0  0  0  0  0  0  0
   27.8696   49.9599    7.2535 H   0  0  0  0  0  0  0  0  0  0  0  0
   26.6554   51.3786    5.6899 H   0  0  0  0  0  0  0  0  0  0  0  0
   23.3069   48.8542    5.9905 H   0  0  0  0  0  0  0  0  0  0  0  0
   24.5507   47.4610    7.5455 H   0  0  0  0  0  0  0  0  0  0  0  0
   34.0234   44.4856    6.0040 H   0  0  0  0  0  0  0  0  0  0  0  0
   36.2945   44.0367    5.3717 H   0  0  0  0  0  0  0  0  0  0  0  0
   33.5528   46.0802   10.3288 H   0  0  0  0  0  0  0  0  0  0  0  0
   34.5081   47.1684   11.1520 H   0  0  0  0  0  0  0  0  0  0  0  0
   40.0008   43.0003    6.6355 H   0  0  0  0  0  0  0  0  0  0  0  0
   38.4117   42.4276    6.1883 H   0  0  0  0  0  0  0  0  0  0  0  0
   38.8427   42.5806    7.8747 H   0  0  0  0  0  0  0  0  0  0  0  0
   40.3716   45.0250    6.3566 H   0  0  0  0  0  0  0  0  0  0  0  0
   39.4880   46.1248    7.3874 H   0  0  0  0  0  0  0  0  0  0  0  0
   39.0569   45.9711    5.7011 H   0  0  0  0  0  0  0  0  0  0  0  0
  1  2  2  0  0  0  0
  2  3  1  0  0  0  0
  2 39  1  0  0  0  0
  3 40  1  0  0  0  0
  4  3  2  0  0  0  0
  4  7  1  0  0  0  0
  5  4  1  0  0  0  0
  5 41  1  0  0  0  0
  6  5  2  0  0  0  0
  6  1  1  0  0  0  0
  6 42  1  0  0  0  0
  7 12  1  0  0  0  0
  8 10  1  0  0  0  0
  8  7  1  0  0  0  0
  9  8  2  0  0  0  0
 10 11  1  0  0  0  0
 13 10  1  0  0  0  0
 14 13  2  0  0  0  0
 14 43  1  0  0  0  0
 15 14  1  0  0  0  0
 15 44  1  0  0  0  0
 16 15  2  0  0  0  0
 16 17  1  0  0  0  0
 17 18  2  0  0  0  0
 17 45  1  0  0  0  0
 18 13  1  0  0  0  0
 18 46  1  0  0  0  0
 19 16  1  0  0  0  0
 20 19  1  0  0  0  0
 21 20  1  0  0  0  0
 22 20  1  0  0  0  0
 23 20  1  0  0  0  0
 24  1  1  0  0  0  0
 24 30  1  0  0  0  0
 25 24  2  0  0  0  0
 25 47  1  0  0  0  0
 26 25  1  0  0  0  0
 26 27  2  0  0  0  0
 26 48  1  0  0  0  0
 27 28  1  0  0  0  0
 28 30  2  0  0  0  0
 28 29  1  0  0  0  0
 29 32  1  0  0  0  0
 29 31  1  0  0  0  0
 30 33  1  0  0  0  0
 31 34  1  0  0  0  0
 33 31  1  0  0  0  0
 33 35  1  1  0  0  0
 35 49  1  0  0  0  0
 35 50  1  0  0  0  0
 36 27  1  0  0  0  0
 37 36  1  0  0  0  0
 37 51  1  0  0  0  0
 37 52  1  0  0  0  0
 37 53  1  0  0  0  0
 38 36  1  0  0  0  0
 38 54  1  0  0  0  0
 38 55  1  0  0  0  0
 38 56  1  0  0  0  0
M  END
>  <REMARK>
 VINA RESULT:      -7.8      5.764     11.869
  6 active torsions:
  status: ('A' for Active; 'I' for Inactive)
    1  A    between atoms: N_2  and  C_4 
    2  A    between atoms: C_7  and  C_8 
    3  A    between atoms: C_11  and  N_12 
       I    between atoms: N_12  and  C_14 
       I    between atoms: C_14  and  N_16 
    4  A    between atoms: N_16  and  C_18 
    5  A    between atoms: C_21  and  O_22 
    6  A    between atoms: O_22  and  C_23 

>  <TORSDO>
F 6

$$$$
resistance_project/docking/5319283d3047ac55/Q9UM73_WT/docked/molecule_0002_out.pdbqt
 OpenBabel09232609183D

 56 59  0  0  0  0  0  0  0  0999 V2000
   31.7840   46.2520    8.1540 C   0  0  0  0  0  0  0  0  0  0  0  0
   30.7020   45.4290    8.2270 C   0  0  0  0  0  0  0  0  0  0  0  0
   29.4490   45.9640    8.4370 C   0  0  0  0  0  0  0  0  0  0  0  0
   29.2160   47.3160    8.5810 C   0  0  0  0  0  0  0  0  0  0  0  0
   30.3080   48.1480    8.5080 C   0  0  0  0  0  0  0  0  0  0  0  0
   31.5690   47.6300    8.2980 C   0  0  0  0  0  0  0  0  0  0  0  0
   27.8850   47.7970    8.7970 N   0  0  0  0  0  0  0  0  0  0  0  0
   27.1820   48.4810    7.8000 C   0  0  0  0  0  0  0  0  0  0  0  0
   27.7140   48.6190    6.6690 O   0  0  0  0  0  0  0  0  0  0  0  0
   25.8840   49.0480    7.9640 N   0  0  0  0  0  0  0  0  0  0  0  0
   25.4240   49.0070    8.8730 H   0  0  0  0  0  0  0  0  0  0  0  0
   27.4380   47.6360    9.6990 H   0  0  0  0  0  0  0  0  0  0  0  0
   25.2180   49.6810    6.8530 C   0  0  0  0  0  0  0  0  0  0  0  0
   25.4560   50.9890    6.5270 C   0  0  0  0  0  0  0  0  0  0  0  0
   24.7830   51.5550    5.4380 C   0  0  0  0  0  0  0  0  0  0  0  0
   23.8790   50.7920    4.6950 C   0  0  0  0  0  0  0  0  0  0  0  0
   23.6450   49.4670    5.0330 C   0  0  0  0  0  0  0  0  0  0  0  0
   24.3290   48.9260    6.1230 C   0  0  0  0  0  0  0  0  0  0  0  0
   23.2520   51.4220    3.6320 O   0  0  0  0  0  0  0  0  0  0  0  0
   23.8920   51.6360    2.3840 C   0  0  0  0  0  0  0  0  0  0  0  0
   24.8200   50.6290    2.1260 F   0  0  0  0  0  0  0  0  0  0  0  0
   22.9730   51.7260    1.3540 F   0  0  0  0  0  0  0  0  0  0  0  0
   24.5990   52.8430    2.3740 F   0  0  0  0  0  0  0  0  0  0  0  0
   33.1500   45.8400    7.9400 C   0  0  0  0  0  0  0  0  0  0  0  0
   33.8810   45.4090    9.0320 C   0  0  0  0  0  0  0  0  0  0  0  0
   35.1930   44.9920    8.9190 C   0  0  0  0  0  0  0  0  0  0  0  0
   35.8110   45.0000    7.6710 C   0  0  0  0  0  0  0  0  0  0  0  0
   35.1000   45.4240    6.5730 C   0  0  0  0  0  0  0  0  0  0  0  0
   35.3850   45.5520    5.2760 N   0  0  0  0  0  0  0  0  0  0  0  0
   33.7860   45.8360    6.7170 C   0  0  0  0  0  0  0  0  0  0  0  0
   34.3700   46.0070    4.5920 N   0  0  0  0  0  0  0  0  0  0  0  0
   36.2910   45.3200    4.8670 H   0  0  0  0  0  0  0  0  0  0  0  0
   33.3630   46.1910    5.4770 C   0  0  0  0  0  0  0  0  0  0  0  0
   34.3410   46.1890    3.5890 H   0  0  0  0  0  0  0  0  0  0  0  0
   32.0930   46.6770    5.1260 N   0  0  0  0  0  0  0  0  0  0  0  0
   37.1530   44.5830    7.4960 N   0  0  0  0  0  0  0  0  0  0  0  0
   38.2340   45.4850    7.8610 C   0  0  0  0  0  0  0  0  0  0  0  0
   37.5070   43.2670    6.9580 C   0  0  0  0  0  0  0  0  0  0  0  0
   30.8193   44.4087    8.1255 H   0  0  0  0  0  0  0  0  0  0  0  0
   28.6442   45.3202    8.4891 H   0  0  0  0  0  0  0  0  0  0  0  0
   30.1834   49.1673    8.6110 H   0  0  0  0  0  0  0  0  0  0  0  0
   32.3745   48.2729    8.2455 H   0  0  0  0  0  0  0  0  0  0  0  0
   26.1237   51.5511    7.0776 H   0  0  0  0  0  0  0  0  0  0  0  0
   24.9553   52.5400    5.1829 H   0  0  0  0  0  0  0  0  0  0  0  0
   22.9799   48.8939    4.4906 H   0  0  0  0  0  0  0  0  0  0  0  0
   24.1649   47.9417    6.3861 H   0  0  0  0  0  0  0  0  0  0  0  0
   33.4319   45.3986    9.9611 H   0  0  0  0  0  0  0  0  0  0  0  0
   35.7756   45.6216    9.5586 H   0  0  0  0  0  0  0  0  0  0  0  0
   31.8947   46.9046    4.1889 H   0  0  0  0  0  0  0  0  0  0  0  0
   31.4010   46.7901    5.8170 H   0  0  0  0  0  0  0  0  0  0  0  0
   39.1740   45.0129    7.6649 H   0  0  0  0  0  0  0  0  0  0  0  0
   38.1644   45.7223    8.9020 H   0  0  0  0  0  0  0  0  0  0  0  0
   38.1589   46.3834    7.2846 H   0  0  0  0  0  0  0  0  0  0  0  0
   36.6143   42.7200    6.7373 H   0  0  0  0  0  0  0  0  0  0  0  0
   38.0849   42.7299    7.6808 H   0  0  0  0  0  0  0  0  0  0  0  0
   38.0803   43.3900    6.0630 H   0  0  0  0  0  0  0  0  0  0  0  0
  1  2  2  0  0  0  0
  1  6  1  0  0  0  0
  2  3  1  0  0  0  0
  2 39  1  0  0  0  0
  3  4  2  0  0  0  0
  3 40  1  0  0  0  0
  4  7  1  0  0  0  0
  5  4  1  0  0  0  0
  5 41  1  0  0  0  0
  6  5  2  0  0  0  0
  6 42  1  0  0  0  0
  7 12  1  0  0  0  0
  8 10  1  0  0  0  0
  8  7  1  0  0  0  0
  9  8  2  0  0  0  0
 10 11  1  0  0  0  0
 13 10  1  0  0  0  0
 14 13  1  0  0  0  0
 14 43  1  0  0  0  0
 15 14  2  0  0  0  0
 15 44  1  0  0  0  0
 16 17  2  0  0  0  0
 16 15  1  0  0  0  0
 17 18  1  0  0  0  0
 17 45  1  0  0  0  0
 18 13  2  0  0  0  0
 18 46  1  0  0  0  0
 19 16  1  0  0  0  0
 20 19  1  0  0  0  0
 21 20  1  0  0  0  0
 22 20  1  0  0  0  0
 23 20  1  0  0  0  0
 24  1  1  0  0  0  0
 24 25  2  0  0  0  0
 25 47  1  0  0  0  0
 26 25  1  0  0  0  0
 26 48  1  0  0  0  0
 27 26  1  0  0  0  0
 28 30  1  0  0  0  0
 28 27  2  0  0  0  0
 29 28  1  0  0  0  0
 30 24  1  0  0  0  0
 31 29  1  0  0  0  0
 31 33  1  0  0  0  0
 32 29  1  0  0  0  0
 33 30  2  0  0  0  0
 34 31  1  0  0  0  0
 35 33  1  0  0  0  0
 35 49  1  0  0  0  0
 35 50  1  0  0  0  0
 36 27  1  0  0  0  0
 36 37  1  0  0  0  0
 37 51  1  0  0  0  0
 37 52  1  0  0  0  0
 37 53  1  0  0  0  0
 38 36  1  0  0  0  0
 38 54  1  0  0  0  0
 38 55  1  0  0  0  0
 38 56  1  0  0  0  0
M  END
>  <REMARK>
 VINA RESULT:      -7.7      5.868     11.485
  6 active torsions:
  status: ('A' for Active; 'I' for Inactive)
    1  A    between atoms: N_2  and  C_4 
    2  A    between atoms: C_7  and  C_8 
    3  A    between atoms: C_11  and  N_12 
       I    between atoms: N_12  and  C_14 
       I    between atoms: C_14  and  N_16 
    4  A    between atoms: N_16  and  C_18 
    5  A    between atoms: C_21  and  O_22 
    6  A    between atoms: O_22  and  C_23 

>  <TORSDO>
F 6

$$$$
resistance_project/docking/5319283d3047ac55/Q9UM73_WT/docked/molecule_0002_out.pdbqt
 OpenBabel09232609183D

 56 59  0  0  0  0  0  0  0  0999 V2000
   26.3680   49.3480    6.6050 C   0  0  0  0  0  0  0  0  0  0  0  0
   27.1130   49.8680    5.5920 C   0  0  0  0  0  0  0  0  0  0  0  0
   28.4880   49.7860    5.6420 C   0  0  0  0  0  0  0  0  0  0  0  0
   29.1750   49.1950    6.6830 C   0  0  0  0  0  0  0  0  0  0  0  0
   28.4220   48.6700    7.7070 C   0  0  0  0  0  0  0  0  0  0  0  0
   27.0460   48.7420    7.6710 C   0  0  0  0  0  0  0  0  0  0  0  0
   30.6060   49.1490    6.6650 N   0  0  0  0  0  0  0  0  0  0  0  0
   31.3120   48.0810    7.2280 C   0  0  0  0  0  0  0  0  0  0  0  0
   30.6680   47.1110    7.7030 O   0  0  0  0  0  0  0  0  0  0  0  0
   32.7330   47.9990    7.3100 N   0  0  0  0  0  0  0  0  0  0  0  0
   33.3060   48.7770    6.9820 H   0  0  0  0  0  0  0  0  0  0  0  0
   31.1230   49.9130    6.2320 H   0  0  0  0  0  0  0  0  0  0  0  0
   33.3670   46.8240    7.8540 C   0  0  0  0  0  0  0  0  0  0  0  0
   33.7760   46.7710    9.1590 C   0  0  0  0  0  0  0  0  0  0  0  0
   34.3850   45.6050    9.6370 C   0  0  0  0  0  0  0  0  0  0  0  0
   34.5740   44.5110    8.7900 C   0  0  0  0  0  0  0  0  0  0  0  0
   34.1570   44.5750    7.4680 C   0  0  0  0  0  0  0  0  0  0  0  0
   33.5510   45.7480    7.0160 C   0  0  0  0  0  0  0  0  0  0  0  0
   35.1850   43.3930    9.3350 O   0  0  0  0  0  0  0  0  0  0  0  0
   34.4500   42.2830    9.8250 C   0  0  0  0  0  0  0  0  0  0  0  0
   33.8550   41.5840    8.7780 F   0  0  0  0  0  0  0  0  0  0  0  0
   35.2480   41.4410   10.5780 F   0  0  0  0  0  0  0  0  0  0  0  0
   33.4140   42.6910   10.6730 F   0  0  0  0  0  0  0  0  0  0  0  0
   24.9280   49.3580    6.6900 C   0  0  0  0  0  0  0  0  0  0  0  0
   24.2600   48.1490    6.6200 C   0  0  0  0  0  0  0  0  0  0  0  0
   22.8840   48.0640    6.6980 C   0  0  0  0  0  0  0  0  0  0  0  0
   22.1320   49.2260    6.8510 C   0  0  0  0  0  0  0  0  0  0  0  0
   22.7780   50.4380    6.9240 C   0  0  0  0  0  0  0  0  0  0  0  0
   22.3680   51.7000    7.0650 N   0  0  0  0  0  0  0  0  0  0  0  0
   24.1590   50.4920    6.8430 C   0  0  0  0  0  0  0  0  0  0  0  0
   23.3670   52.5420    7.0800 N   0  0  0  0  0  0  0  0  0  0  0  0
   21.3890   51.9750    7.1510 H   0  0  0  0  0  0  0  0  0  0  0  0
   24.4920   51.8040    6.9420 C   0  0  0  0  0  0  0  0  0  0  0  0
   23.3090   53.5550    7.1770 H   0  0  0  0  0  0  0  0  0  0  0  0
   25.7860   52.3500    6.9100 N   0  0  0  0  0  0  0  0  0  0  0  0
   20.7190   49.1990    6.9360 N   0  0  0  0  0  0  0  0  0  0  0  0
   20.0860   48.7570    8.1690 C   0  0  0  0  0  0  0  0  0  0  0  0
   19.8530   49.6030    5.8240 C   0  0  0  0  0  0  0  0  0  0  0  0
   26.6502   50.3222    4.7892 H   0  0  0  0  0  0  0  0  0  0  0  0
   29.0313   50.1868    4.8615 H   0  0  0  0  0  0  0  0  0  0  0  0
   28.8906   48.2188    8.5082 H   0  0  0  0  0  0  0  0  0  0  0  0
   26.5010   48.3392    8.4493 H   0  0  0  0  0  0  0  0  0  0  0  0
   33.6370   47.5811    9.7831 H   0  0  0  0  0  0  0  0  0  0  0  0
   34.6957   45.5535   10.6198 H   0  0  0  0  0  0  0  0  0  0  0  0
   34.2921   43.7728    6.8330 H   0  0  0  0  0  0  0  0  0  0  0  0
   33.2351   45.8097    6.0355 H   0  0  0  0  0  0  0  0  0  0  0  0
   24.8079   47.2820    6.5057 H   0  0  0  0  0  0  0  0  0  0  0  0
   22.6581   47.4350    7.5336 H   0  0  0  0  0  0  0  0  0  0  0  0
   26.5670   51.7595    6.8071 H   0  0  0  0  0  0  0  0  0  0  0  0
   25.9118   53.3231    6.9905 H   0  0  0  0  0  0  0  0  0  0  0  0
   19.0225   48.7993    8.0590 H   0  0  0  0  0  0  0  0  0  0  0  0
   20.3870   49.3954    8.9732 H   0  0  0  0  0  0  0  0  0  0  0  0
   20.3829   47.7513    8.3817 H   0  0  0  0  0  0  0  0  0  0  0  0
   20.4564   49.9006    4.9920 H   0  0  0  0  0  0  0  0  0  0  0  0
   19.2384   50.4235    6.1305 H   0  0  0  0  0  0  0  0  0  0  0  0
   19.2322   48.7797    5.5380 H   0  0  0  0  0  0  0  0  0  0  0  0
  1 24  1  0  0  0  0
  1  6  2  0  0  0  0
  2  3  2  0  0  0  0
  2  1  1  0  0  0  0
  2 39  1  0  0  0  0
  3  4  1  0  0  0  0
  3 40  1  0  0  0  0
  4  5  2  0  0  0  0
  5 41  1  0  0  0  0
  6  5  1  0  0  0  0
  6 42  1  0  0  0  0
  7  4  1  0  0  0  0
  7  8  1  0  0  0  0
  8 10  1  0  0  0  0
  8  9  2  0  0  0  0
 10 13  1  0  0  0  0
 11 10  1  0  0  0  0
 12  7  1  0  0  0  0
 13 14  2  0  0  0  0
 14 15  1  0  0  0  0
 14 43  1  0  0  0  0
 15 44  1  0  0  0  0
 16 19  1  0  0  0  0
 16 15  2  0  0  0  0
 17 16  1  0  0  0  0
 17 45  1  0  0  0  0
 18 17  2  0  0  0  0
 18 13  1  0  0  0  0
 18 46  1  0  0  0  0
 19 20  1  0  0  0  0
 20 22  1  0  0  0  0
 20 23  1  0  0  0  0
 21 20  1  0  0  0  0
 24 30  1  0  0  0  0
 25 24  2  0  0  0  0
 25 26  1  0  0  0  0
 25 47  1  0  0  0  0
 26 27  1  0  0  0  0
 26 48  1  0  0  0  0
 27 28  2  0  0  0  0
 27 36  1  0  0  0  0
 28 29  1  0  0  0  0
 29 31  1  0  0  0  0
 29 32  1  0  0  0  0
 30 28  1  0  0  0  0
 30 33  2  0  0  0  0
 31 34  1  0  0  0  0
 33 31  1  0  0  0  0
 35 33  1  0  0  0  0
 35 49  1  0  0  0  0
 35 50  1  0  0  0  0
 36 37  1  0  0  0  0
 37 51  1  0  0  0  0
 37 52  1  0  0  0  0
 37 53  1  0  0  0  0
 38 36  1  0  0  0  0
 38 54  1  0  0  0  0
 38 55  1  0  0  0  0
 38 56  1  0  0  0  0
M  END
>  <REMARK>
 VINA RESULT:      -7.4      3.202      3.976
  6 active torsions:
  status: ('A' for Active; 'I' for Inactive)
    1  A    between atoms: N_2  and  C_4 
    2  A    between atoms: C_7  and  C_8 
    3  A    between atoms: C_11  and  N_12 
       I    between atoms: N_12  and  C_14 
       I    between atoms: C_14  and  N_16 
    4  A    between atoms: N_16  and  C_18 
    5  A    between atoms: C_21  and  O_22 
    6  A    between atoms: O_22  and  C_23 

>  <TORSDO>
F 6

$$$$
resistance_project/docking/5319283d3047ac55/Q9UM73_WT/docked/molecule_0002_out.pdbqt
 OpenBabel09232609183D

 56 59  0  0  1  0  0  0  0  0999 V2000
   26.2130   50.6260    4.5310 C   0  0  0  0  0  0  0  0  0  0  0  0
   27.4710   50.5390    5.0430 C   0  0  0  0  0  0  0  0  0  0  0  0
   27.6840   49.8560    6.2220 C   0  0  0  0  0  0  0  0  0  0  0  0
   26.6750   49.2390    6.9340 C   0  0  0  0  0  0  0  0  0  0  0  0
   25.4050   49.3270    6.4160 C   0  0  0  0  0  0  0  0  0  0  0  0
   25.1740   50.0050    5.2380 C   0  0  0  0  0  0  0  0  0  0  0  0
   26.9750   48.5480    8.1510 N   0  0  0  0  0  0  0  0  0  0  0  0
   27.9310   47.5280    8.1990 C   0  0  0  0  0  0  0  0  0  0  0  0
   28.5850   47.2600    7.1590 O   0  0  0  0  0  0  0  0  0  0  0  0
   28.2320   46.7510    9.3560 N   0  0  0  0  0  0  0  0  0  0  0  0
   27.7010   46.8930   10.2150 H   0  0  0  0  0  0  0  0  0  0  0  0
   26.4790   48.8050    9.0040 H   0  0  0  0  0  0  0  0  0  0  0  0
   29.2810   45.7630    9.3190 C   0  0  0  0  0  0  0  0  0  0  0  0
   30.5550   46.0860    8.9340 C   0  0  0  0  0  0  0  0  0  0  0  0
   31.5370   45.0890    8.9160 C   0  0  0  0  0  0  0  0  0  0  0  0
   31.2180   43.7800    9.2860 C   0  0  0  0  0  0  0  0  0  0  0  0
   29.9250   43.4620    9.6750 C   0  0  0  0  0  0  0  0  0  0  0  0
   28.9640   44.4750    9.6840 C   0  0  0  0  0  0  0  0  0  0  0  0
   32.2440   42.8490    9.2430 O   0  0  0  0  0  0  0  0  0  0  0  0
   32.6760   42.2430    8.0350 C   0  0  0  0  0  0  0  0  0  0  0  0
   31.6240   41.5760    7.4130 F   0  0  0  0  0  0  0  0  0  0  0  0
   33.2380   43.1720    7.1780 F   0  0  0  0  0  0  0  0  0  0  0  0
   33.6720   41.2880    8.2720 F   0  0  0  0  0  0  0  0  0  0  0  0
   25.8380   51.3030    3.3140 C   0  0  0  0  0  0  0  0  0  0  0  0
   25.7480   50.5580    2.1530 C   0  0  0  0  0  0  0  0  0  0  0  0
   25.3910   51.1220    0.9430 C   0  0  0  0  0  0  0  0  0  0  0  0
   25.1110   52.4840    0.8770 C   0  0  0  0  0  0  0  0  0  0  0  0
   25.1940   53.2420    2.0220 C   0  0  0  0  0  0  0  0  0  0  0  0
   24.9980   54.5340    2.2950 N   0  0  0  0  0  0  0  0  0  0  0  0
   25.5540   52.6480    3.2200 C   0  0  0  0  0  0  0  0  0  0  0  0
   25.2010   54.8050    3.5570 N   0  0  0  0  0  0  0  0  0  0  0  0
   24.7210   55.2270    1.6000 H   0  0  0  0  0  0  0  0  0  0  0  0
   25.5500   53.6390    4.1480 C   0  0  2  0  0  0  0  0  0  0  0  0
   25.1150   55.7160    4.0070 H   0  0  0  0  0  0  0  0  0  0  0  0
   25.8540   53.5160    5.5130 N   0  0  0  0  0  0  0  0  0  0  0  0
   24.7410   53.1160   -0.3350 N   0  0  0  0  0  0  0  0  0  0  0  0
   25.7690   53.7220   -1.1670 C   0  0  0  0  0  0  0  0  0  0  0  0
   23.3520   53.1870   -0.7960 C   0  0  0  0  0  0  0  0  0  0  0  0
   28.2624   50.9824    4.5509 H   0  0  0  0  0  0  0  0  0  0  0  0
   28.6465   49.8035    6.5907 H   0  0  0  0  0  0  0  0  0  0  0  0
   24.6177   48.8818    6.9130 H   0  0  0  0  0  0  0  0  0  0  0  0
   24.2122   50.0566    4.8675 H   0  0  0  0  0  0  0  0  0  0  0  0
   30.7882   47.0533    8.6603 H   0  0  0  0  0  0  0  0  0  0  0  0
   32.5004   45.3216    8.6283 H   0  0  0  0  0  0  0  0  0  0  0  0
   29.6789   42.4987    9.9515 H   0  0  0  0  0  0  0  0  0  0  0  0
   27.9975   44.2533    9.9699 H   0  0  0  0  0  0  0  0  0  0  0  0
   25.9542   49.5475    2.1912 H   0  0  0  0  0  0  0  0  0  0  0  0
   25.3324   50.5377    0.0944 H   0  0  0  0  0  0  0  0  0  0  0  0
   26.0868   52.5454    5.7234 H   0  0  0  0  0  0  0  0  0  0  0  0
   25.0468   53.8001    6.0681 H   0  0  0  0  0  0  0  0  0  0  0  0
   25.3170   54.1506   -2.0370 H   0  0  0  0  0  0  0  0  0  0  0  0
   26.4746   52.9743   -1.4634 H   0  0  0  0  0  0  0  0  0  0  0  0
   26.2715   54.4869   -0.6126 H   0  0  0  0  0  0  0  0  0  0  0  0
   23.3124   53.7074   -1.7301 H   0  0  0  0  0  0  0  0  0  0  0  0
   22.7620   53.7088   -0.0717 H   0  0  0  0  0  0  0  0  0  0  0  0
   22.9672   52.1967   -0.9229 H   0  0  0  0  0  0  0  0  0  0  0  0
  1  2  2  0  0  0  0
  1  6  1  0  0  0  0
  2  3  1  0  0  0  0
  2 39  1  0  0  0  0
  3  4  2  0  0  0  0
  3 40  1  0  0  0  0
  4  7  1  0  0  0  0
  5  4  1  0  0  0  0
  5 41  1  0  0  0  0
  6  5  2  0  0  0  0
  6 42  1  0  0  0  0
  7  8  1  0  0  0  0
  7 12  1  0  0  0  0
  8 10  1  0  0  0  0
  9  8  2  0  0  0  0
 10 11  1  0  0  0  0
 13 10  1  0  0  0  0
 13 18  2  0  0  0  0
 14 13  1  0  0  0  0
 14 43  1  0  0  0  0
 15 14  2  0  0  0  0
 15 16  1  0  0  0  0
 15 44  1  0  0  0  0
 16 17  2  0  0  0  0
 17 18  1  0  0  0  0
 17 45  1  0  0  0  0
 18 46  1  0  0  0  0
 19 16  1  0  0  0  0
 20 23  1  0  0  0  0
 20 19  1  0  0  0  0
 21 20  1  0  0  0  0
 22 20  1  0  0  0  0
 24  1  1  0  0  0  0
 25 24  2  0  0  0  0
 25 47  1  0  0  0  0
 26 25  1  0  0  0  0
 26 48  1  0  0  0  0
 27 26  2  0  0  0  0
 27 28  1  0  0  0  0
 28 29  1  0  0  0  0
 28 30  2  0  0  0  0
 29 31  1  0  0  0  0
 30 24  1  0  0  0  0
 30 33  1  0  0  0  0
 31 34  1  0  0  0  0
 31 33  1  0  0  0  0
 32 29  1  0  0  0  0
 33 35  1  6  0  0  0
 35 49  1  0  0  0  0
 35 50  1  0  0  0  0
 36 27  1  0  0  0  0
 37 36  1  0  0  0  0
 37 51  1  0  0  0  0
 37 52  1  0  0  0  0
 37 53  1  0  0  0  0
 38 36  1  0  0  0  0
 38 54  1  0  0  0  0
 38 55  1  0  0  0  0
 38 56  1  0  0  0  0
M  END
>  <REMARK>
 VINA RESULT:      -7.1      1.379      2.029
  6 active torsions:
  status: ('A' for Active; 'I' for Inactive)
    1  A    between atoms: N_2  and  C_4 
    2  A    between atoms: C_7  and  C_8 
    3  A    between atoms: C_11  and  N_12 
       I    between atoms: N_12  and  C_14 
       I    between atoms: C_14  and  N_16 
    4  A    between atoms: N_16  and  C_18 
    5  A    between atoms: C_21  and  O_22 
    6  A    between atoms: O_22  and  C_23 

>  <TORSDO>
F 6

$$$$
resistance_project/docking/5319283d3047ac55/Q9UM73_WT/docked/molecule_0002_out.pdbqt
 OpenBabel09232609183D

 56 59  0  0  1  0  0  0  0  0999 V2000
   30.3020   47.7980    7.2830 C   0  0  0  0  0  0  0  0  0  0  0  0
   29.1700   48.0270    6.5640 C   0  0  0  0  0  0  0  0  0  0  0  0
   28.7900   49.3220    6.2790 C   0  0  0  0  0  0  0  0  0  0  0  0
   29.5060   50.4290    6.6880 C   0  0  0  0  0  0  0  0  0  0  0  0
   30.6500   50.1970    7.4140 C   0  0  0  0  0  0  0  0  0  0  0  0
   31.0440   48.9090    7.7070 C   0  0  0  0  0  0  0  0  0  0  0  0
   29.0490   51.7430    6.3530 N   0  0  0  0  0  0  0  0  0  0  0  0
   27.8040   52.2170    6.7800 C   0  0  0  0  0  0  0  0  0  0  0  0
   27.1030   51.4910    7.5290 O   0  0  0  0  0  0  0  0  0  0  0  0
   27.2530   53.4850    6.4300 N   0  0  0  0  0  0  0  0  0  0  0  0
   27.7570   54.0970    5.7870 H   0  0  0  0  0  0  0  0  0  0  0  0
   29.6440   52.3490    5.7880 H   0  0  0  0  0  0  0  0  0  0  0  0
   25.9870   53.9060    6.9750 C   0  0  0  0  0  0  0  0  0  0  0  0
   25.9060   54.5510    8.1790 C   0  0  0  0  0  0  0  0  0  0  0  0
   24.6510   54.9410    8.6630 C   0  0  0  0  0  0  0  0  0  0  0  0
   23.4970   54.6710    7.9230 C   0  0  0  0  0  0  0  0  0  0  0  0
   23.5900   54.0160    6.7030 C   0  0  0  0  0  0  0  0  0  0  0  0
   24.8520   53.6400    6.2430 C   0  0  0  0  0  0  0  0  0  0  0  0
   22.2920   55.0870    8.4670 O   0  0  0  0  0  0  0  0  0  0  0  0
   21.3000   54.1760    8.9130 C   0  0  0  0  0  0  0  0  0  0  0  0
   21.8830   53.0720    9.5290 F   0  0  0  0  0  0  0  0  0  0  0  0
   20.3990   54.7890    9.7650 F   0  0  0  0  0  0  0  0  0  0  0  0
   20.5420   53.6840    7.8440 F   0  0  0  0  0  0  0  0  0  0  0  0
   30.8220   46.5050    7.6560 C   0  0  0  0  0  0  0  0  0  0  0  0
   32.0420   46.1160    7.1360 C   0  0  0  0  0  0  0  0  0  0  0  0
   32.6180   44.8990    7.4420 C   0  0  0  0  0  0  0  0  0  0  0  0
   31.9590   44.0250    8.3030 C   0  0  0  0  0  0  0  0  0  0  0  0
   30.7440   44.3940    8.8320 C   0  0  0  0  0  0  0  0  0  0  0  0
   29.8770   43.8090    9.6610 N   0  0  0  0  0  0  0  0  0  0  0  0
   30.1920   45.6220    8.5060 C   0  0  0  0  0  0  0  0  0  0  0  0
   28.8310   44.5580    9.8850 N   0  0  0  0  0  0  0  0  0  0  0  0
   30.0170   42.8850   10.0710 H   0  0  0  0  0  0  0  0  0  0  0  0
   29.0110   45.6930    9.1710 C   0  0  2  0  0  0  0  0  0  0  0  0
   28.0350   44.3310   10.4810 H   0  0  0  0  0  0  0  0  0  0  0  0
   28.0940   46.7550    9.1480 N   0  0  0  0  0  0  0  0  0  0  0  0
   32.5010   42.7640    8.6520 N   0  0  0  0  0  0  0  0  0  0  0  0
   32.2580   41.6190    7.7890 C   0  0  0  0  0  0  0  0  0  0  0  0
   33.3070   42.5590    9.8590 C   0  0  0  0  0  0  0  0  0  0  0  0
   28.5976   47.2346    6.2330 H   0  0  0  0  0  0  0  0  0  0  0  0
   27.9272   49.4707    5.7326 H   0  0  0  0  0  0  0  0  0  0  0  0
   31.2183   50.9934    7.7423 H   0  0  0  0  0  0  0  0  0  0  0  0
   31.9072   48.7589    8.2524 H   0  0  0  0  0  0  0  0  0  0  0  0
   26.7599   54.7478    8.7242 H   0  0  0  0  0  0  0  0  0  0  0  0
   24.5783   55.4294    9.5692 H   0  0  0  0  0  0  0  0  0  0  0  0
   22.7441   53.8116    6.1483 H   0  0  0  0  0  0  0  0  0  0  0  0
   24.9364   53.1533    5.3369 H   0  0  0  0  0  0  0  0  0  0  0  0
   32.5391   46.7566    6.4976 H   0  0  0  0  0  0  0  0  0  0  0  0
   33.5303   44.6389    7.0356 H   0  0  0  0  0  0  0  0  0  0  0  0
   28.4468   47.4958    8.5421 H   0  0  0  0  0  0  0  0  0  0  0  0
   27.9709   47.1184   10.0931 H   0  0  0  0  0  0  0  0  0  0  0  0
   31.6596   41.9215    6.9551 H   0  0  0  0  0  0  0  0  0  0  0  0
   31.7437   40.8597    8.3402 H   0  0  0  0  0  0  0  0  0  0  0  0
   33.1918   41.2334    7.4367 H   0  0  0  0  0  0  0  0  0  0  0  0
   33.6071   41.5336    9.9175 H   0  0  0  0  0  0  0  0  0  0  0  0
   32.7270   42.8107   10.7222 H   0  0  0  0  0  0  0  0  0  0  0  0
   34.1752   43.1830    9.8183 H   0  0  0  0  0  0  0  0  0  0  0  0
  1 24  1  0  0  0  0
  1  6  2  0  0  0  0
  2  1  1  0  0  0  0
  2 39  1  0  0  0  0
  3  2  2  0  0  0  0
  3  4  1  0  0  0  0
  3 40  1  0  0  0  0
  4  5  2  0  0  0  0
  5  6  1  0  0  0  0
  5 41  1  0  0  0  0
  6 42  1  0  0  0  0
  7  4  1  0  0  0  0
  7  8  1  0  0  0  0
  8  9  2  0  0  0  0
 10  8  1  0  0  0  0
 10 13  1  0  0  0  0
 11 10  1  0  0  0  0
 12  7  1  0  0  0  0
 13 14  2  0  0  0  0
 14 15  1  0  0  0  0
 14 43  1  0  0  0  0
 15 44  1  0  0  0  0
 16 19  1  0  0  0  0
 16 15  2  0  0  0  0
 17 16  1  0  0  0  0
 17 45  1  0  0  0  0
 18 17  2  0  0  0  0
 18 13  1  0  0  0  0
 18 46  1  0  0  0  0
 19 20  1  0  0  0  0
 20 21  1  0  0  0  0
 20 22  1  0  0  0  0
 23 20  1  0  0  0  0
 24 30  1  0  0  0  0
 25 26  1  0  0  0  0
 25 24  2  0  0  0  0
 25 47  1  0  0  0  0
 26 27  2  0  0  0  0
 26 48  1  0  0  0  0
 27 36  1  0  0  0  0
 27 28  1  0  0  0  0
 28 29  1  0  0  0  0
 29 31  1  0  0  0  0
 29 32  1  0  0  0  0
 30 28  2  0  0  0  0
 30 33  1  0  0  0  0
 31 34  1  0  0  0  0
 33 35  1  6  0  0  0
 33 31  1  0  0  0  0
 35 49  1  0  0  0  0
 35 50  1  0  0  0  0
 36 38  1  0  0  0  0
 37 36  1  0  0  0  0
 37 51  1  0  0  0  0
 37 52  1  0  0  0  0
 37 53  1  0  0  0  0
 38 54  1  0  0  0  0
 38 55  1  0  0  0  0
 38 56  1  0  0  0  0
M  END
>  <REMARK>
 VINA RESULT:      -7.1      6.222     11.695
  6 active torsions:
  status: ('A' for Active; 'I' for Inactive)
    1  A    between atoms: N_2  and  C_4 
    2  A    between atoms: C_7  and  C_8 
    3  A    between atoms: C_11  and  N_12 
       I    between atoms: N_12  and  C_14 
       I    between atoms: C_14  and  N_16 
    4  A    between atoms: N_16  and  C_18 
    5  A    between atoms: C_21  and  O_22 
    6  A    between atoms: O_22  and  C_23 

>  <TORSDO>
F 6

$$$$
resistance_project/docking/5319283d3047ac55/Q9UM73_WT/docked/molecule_0002_out.pdbqt
 OpenBabel09232609183D

 56 59  0  0  1  0  0  0  0  0999 V2000
   33.3430   46.8630    7.7740 C   0  0  0  0  0  0  0  0  0  0  0  0
   32.5810   45.7690    7.4990 C   0  0  0  0  0  0  0  0  0  0  0  0
   31.2280   45.7950    7.7640 C   0  0  0  0  0  0  0  0  0  0  0  0
   30.5810   46.8880    8.3030 C   0  0  0  0  0  0  0  0  0  0  0  0
   31.3520   47.9930    8.5810 C   0  0  0  0  0  0  0  0  0  0  0  0
   32.7060   47.9840    8.3220 C   0  0  0  0  0  0  0  0  0  0  0  0
   29.1720   46.8390    8.5490 N   0  0  0  0  0  0  0  0  0  0  0  0
   28.2880   47.7230    7.9230 C   0  0  0  0  0  0  0  0  0  0  0  0
   28.7390   48.5350    7.0760 O   0  0  0  0  0  0  0  0  0  0  0  0
   26.8840   47.7800    8.1700 N   0  0  0  0  0  0  0  0  0  0  0  0
   26.4690   47.1770    8.8810 H   0  0  0  0  0  0  0  0  0  0  0  0
   28.8040   46.1440    9.1980 H   0  0  0  0  0  0  0  0  0  0  0  0
   26.0480   48.6860    7.4240 C   0  0  0  0  0  0  0  0  0  0  0  0
   24.8740   48.2720    6.8550 C   0  0  0  0  0  0  0  0  0  0  0  0
   24.0980   49.1930    6.1420 C   0  0  0  0  0  0  0  0  0  0  0  0
   24.5200   50.5190    6.0130 C   0  0  0  0  0  0  0  0  0  0  0  0
   25.7110   50.9290    6.5930 C   0  0  0  0  0  0  0  0  0  0  0  0
   26.4660   49.9910    7.3000 C   0  0  0  0  0  0  0  0  0  0  0  0
   23.6980   51.3710    5.2920 O   0  0  0  0  0  0  0  0  0  0  0  0
   22.5010   51.9130    5.8270 C   0  0  0  0  0  0  0  0  0  0  0  0
   22.5760   52.0020    7.2150 F   0  0  0  0  0  0  0  0  0  0  0  0
   22.2160   53.1490    5.2760 F   0  0  0  0  0  0  0  0  0  0  0  0
   21.4000   51.1000    5.5370 F   0  0  0  0  0  0  0  0  0  0  0  0
   34.7640   46.9830    7.5530 C   0  0  0  0  0  0  0  0  0  0  0  0
   35.1960   47.4910    6.3420 C   0  0  0  0  0  0  0  0  0  0  0  0
   36.5360   47.6460    6.0460 C   0  0  0  0  0  0  0  0  0  0  0  0
   37.4940   47.2820    6.9890 C   0  0  0  0  0  0  0  0  0  0  0  0
   37.0840   46.7760    8.2000 C   0  0  0  0  0  0  0  0  0  0  0  0
   37.7230   46.3430    9.2890 N   0  0  0  0  0  0  0  0  0  0  0  0
   35.7330   46.6320    8.4680 C   0  0  0  0  0  0  0  0  0  0  0  0
   36.8960   45.9410   10.2170 N   0  0  0  0  0  0  0  0  0  0  0  0
   38.7390   46.3280    9.3850 H   0  0  0  0  0  0  0  0  0  0  0  0
   35.6500   46.1140    9.7210 C   0  0  2  0  0  0  0  0  0  0  0  0
   37.1420   45.5700   11.1340 H   0  0  0  0  0  0  0  0  0  0  0  0
   34.4770   45.7940   10.4230 N   0  0  0  0  0  0  0  0  0  0  0  0
   38.8810   47.4180    6.7410 N   0  0  0  0  0  0  0  0  0  0  0  0
   39.6110   46.3130    6.1390 C   0  0  0  0  0  0  0  0  0  0  0  0
   39.6250   48.6390    7.0650 C   0  0  0  0  0  0  0  0  0  0  0  0
   33.0139   44.9242    7.0941 H   0  0  0  0  0  0  0  0  0  0  0  0
   30.6707   44.9537    7.5481 H   0  0  0  0  0  0  0  0  0  0  0  0
   30.9136   48.8347    8.9864 H   0  0  0  0  0  0  0  0  0  0  0  0
   33.2647   48.8246    8.5373 H   0  0  0  0  0  0  0  0  0  0  0  0
   24.5646   47.2921    6.9506 H   0  0  0  0  0  0  0  0  0  0  0  0
   23.2106   48.8917    5.7098 H   0  0  0  0  0  0  0  0  0  0  0  0
   26.0322   51.9057    6.5041 H   0  0  0  0  0  0  0  0  0  0  0  0
   27.3541   50.2820    7.7377 H   0  0  0  0  0  0  0  0  0  0  0  0
   34.4942   47.7633    5.6361 H   0  0  0  0  0  0  0  0  0  0  0  0
   36.8254   48.0289    5.1324 H   0  0  0  0  0  0  0  0  0  0  0  0
   33.6650   46.0118    9.8454 H   0  0  0  0  0  0  0  0  0  0  0  0
   34.4372   46.3384   11.2847 H   0  0  0  0  0  0  0  0  0  0  0  0
   38.9411   45.4979    5.9608 H   0  0  0  0  0  0  0  0  0  0  0  0
   40.3893   45.9967    6.8016 H   0  0  0  0  0  0  0  0  0  0  0  0
   40.0395   46.6317    5.2118 H   0  0  0  0  0  0  0  0  0  0  0  0
   40.6519   48.5141    6.7916 H   0  0  0  0  0  0  0  0  0  0  0  0
   39.5564   48.8303    8.1155 H   0  0  0  0  0  0  0  0  0  0  0  0
   39.2097   49.4637    6.5244 H   0  0  0  0  0  0  0  0  0  0  0  0
  1  6  2  0  0  0  0
  2  3  2  0  0  0  0
  2  1  1  0  0  0  0
  2 39  1  0  0  0  0
  3  4  1  0  0  0  0
  3 40  1  0  0  0  0
  4  7  1  0  0  0  0
  4  5  2  0  0  0  0
  5 41  1  0  0  0  0
  6  5  1  0  0  0  0
  6 42  1  0  0  0  0
  7 12  1  0  0  0  0
  8 10  1  0  0  0  0
  8  7  1  0  0  0  0
  9  8  2  0  0  0  0
 10 11  1  0  0  0  0
 13 10  1  0  0  0  0
 14 13  2  0  0  0  0
 14 43  1  0  0  0  0
 15 14  1  0  0  0  0
 15 44  1  0  0  0  0
 16 15  2  0  0  0  0
 16 17  1  0  0  0  0
 17 18  2  0  0  0  0
 17 45  1  0  0  0  0
 18 13  1  0  0  0  0
 18 46  1  0  0  0  0
 19 20  1  0  0  0  0
 19 16  1  0  0  0  0
 20 21  1  0  0  0  0
 22 20  1  0  0  0  0
 23 20  1  0  0  0  0
 24  1  1  0  0  0  0
 24 30  1  0  0  0  0
 25 24  2  0  0  0  0
 25 47  1  0  0  0  0
 26 25  1  0  0  0  0
 26 27  2  0  0  0  0
 26 48  1  0  0  0  0
 27 28  1  0  0  0  0
 28 30  2  0  0  0  0
 28 29  1  0  0  0  0
 29 32  1  0  0  0  0
 29 31  1  0  0  0  0
 30 33  1  0  0  0  0
 31 34  1  0  0  0  0
 33 31  1  0  0  0  0
 33 35  1  6  0  0  0
 35 49  1  0  0  0  0
 35 50  1  0  0  0  0
 36 27  1  0  0  0  0
 36 38  1  0  0  0  0
 37 36  1  0  0  0  0
 37 51  1  0  0  0  0
 37 52  1  0  0  0  0
 37 53  1  0  0  0  0
 38 54  1  0  0  0  0
 38 55  1  0  0  0  0
 38 56  1  0  0  0  0
M  END
>  <REMARK>
 VINA RESULT:      -7.0      6.404     11.789
  6 active torsions:
  status: ('A' for Active; 'I' for Inactive)
    1  A    between atoms: N_2  and  C_4 
    2  A    between atoms: C_7  and  C_8 
    3  A    between atoms: C_11  and  N_12 
       I    between atoms: N_12  and  C_14 
       I    between atoms: C_14  and  N_16 
    4  A    between atoms: N_16  and  C_18 
    5  A    between atoms: C_21  and  O_22 
    6  A    between atoms: O_22  and  C_23 

>  <TORSDO>
F 6

$$$$
resistance_project/docking/5319283d3047ac55/Q9UM73_WT/docked/molecule_0002_out.pdbqt
 OpenBabel09232609183D

 56 59  0  0  1  0  0  0  0  0999 V2000
   27.6150   50.2060    5.7970 C   0  0  0  0  0  0  0  0  0  0  0  0
   28.8760   49.7660    6.0580 C   0  0  0  0  0  0  0  0  0  0  0  0
   29.0780   48.7980    7.0180 C   0  0  0  0  0  0  0  0  0  0  0  0
   28.0550   48.2300    7.7500 C   0  0  0  0  0  0  0  0  0  0  0  0
   26.7810   48.6740    7.4860 C   0  0  0  0  0  0  0  0  0  0  0  0
   26.5610   49.6420    6.5290 C   0  0  0  0  0  0  0  0  0  0  0  0
   28.3430   47.2280    8.7300 N   0  0  0  0  0  0  0  0  0  0  0  0
   29.4140   46.3410    8.5790 C   0  0  0  0  0  0  0  0  0  0  0  0
   30.1750   46.4720    7.5870 O   0  0  0  0  0  0  0  0  0  0  0  0
   29.7200   45.2760    9.4760 N   0  0  0  0  0  0  0  0  0  0  0  0
   29.1100   45.0920   10.2730 H   0  0  0  0  0  0  0  0  0  0  0  0
   27.7540   47.1590    9.5600 H   0  0  0  0  0  0  0  0  0  0  0  0
   30.8850   44.4540    9.2640 C   0  0  0  0  0  0  0  0  0  0  0  0
   32.1070   44.8000    9.7740 C   0  0  0  0  0  0  0  0  0  0  0  0
   33.2070   43.9670    9.5390 C   0  0  0  0  0  0  0  0  0  0  0  0
   33.0560   42.7960    8.7910 C   0  0  0  0  0  0  0  0  0  0  0  0
   31.8130   42.4540    8.2780 C   0  0  0  0  0  0  0  0  0  0  0  0
   30.7330   43.3020    8.5280 C   0  0  0  0  0  0  0  0  0  0  0  0
   34.1900   42.0230    8.6020 O   0  0  0  0  0  0  0  0  0  0  0  0
   34.8210   41.3170    9.6590 C   0  0  0  0  0  0  0  0  0  0  0  0
   35.2530   42.1950   10.6490 F   0  0  0  0  0  0  0  0  0  0  0  0
   33.9830   40.3560   10.1940 F   0  0  0  0  0  0  0  0  0  0  0  0
   35.9540   40.6310    9.2090 F   0  0  0  0  0  0  0  0  0  0  0  0
   27.2510   51.2090    4.8260 C   0  0  0  0  0  0  0  0  0  0  0  0
   27.0170   50.8050    3.5250 C   0  0  0  0  0  0  0  0  0  0  0  0
   26.6590   51.6950    2.5320 C   0  0  0  0  0  0  0  0  0  0  0  0
   26.5250   53.0470    2.8370 C   0  0  0  0  0  0  0  0  0  0  0  0
   26.7520   53.4680    4.1270 C   0  0  0  0  0  0  0  0  0  0  0  0
   26.7120   54.6560    4.7350 N   0  0  0  0  0  0  0  0  0  0  0  0
   27.1090   52.5520    5.1010 C   0  0  0  0  0  0  0  0  0  0  0  0
   27.0110   54.5680    6.0030 N   0  0  0  0  0  0  0  0  0  0  0  0
   26.4740   55.5290    4.2640 H   0  0  0  0  0  0  0  0  0  0  0  0
   27.2630   53.2620    6.2480 C   0  0  2  0  0  0  0  0  0  0  0  0
   27.0480   55.3330    6.6760 H   0  0  0  0  0  0  0  0  0  0  0  0
   27.6260   52.7580    7.5080 N   0  0  0  0  0  0  0  0  0  0  0  0
   26.1610   54.0040    1.8600 N   0  0  0  0  0  0  0  0  0  0  0  0
   24.7530   54.2760    1.6160 C   0  0  0  0  0  0  0  0  0  0  0  0
   27.1510   54.7450    1.0730 C   0  0  0  0  0  0  0  0  0  0  0  0
   29.6782   50.1558    5.5389 H   0  0  0  0  0  0  0  0  0  0  0  0
   30.0436   48.4817    7.1988 H   0  0  0  0  0  0  0  0  0  0  0  0
   25.9830   48.2797    8.0082 H   0  0  0  0  0  0  0  0  0  0  0  0
   25.5960   49.9593    6.3471 H   0  0  0  0  0  0  0  0  0  0  0  0
   32.2162   45.6653   10.3256 H   0  0  0  0  0  0  0  0  0  0  0  0
   34.1328   44.2183    9.9194 H   0  0  0  0  0  0  0  0  0  0  0  0
   31.6898   41.5920    7.7241 H   0  0  0  0  0  0  0  0  0  0  0  0
   29.8023   43.0600    8.1534 H   0  0  0  0  0  0  0  0  0  0  0  0
   27.1130   49.8052    3.2881 H   0  0  0  0  0  0  0  0  0  0  0  0
   26.4918   51.3604    1.5702 H   0  0  0  0  0  0  0  0  0  0  0  0
   27.7629   51.7493    7.4441 H   0  0  0  0  0  0  0  0  0  0  0  0
   26.8859   52.9587    8.1806 H   0  0  0  0  0  0  0  0  0  0  0  0
   24.6605   55.0195    0.8521 H   0  0  0  0  0  0  0  0  0  0  0  0
   24.2971   54.6312    2.5165 H   0  0  0  0  0  0  0  0  0  0  0  0
   24.2657   53.3774    1.3000 H   0  0  0  0  0  0  0  0  0  0  0  0
   26.6481   55.4089    0.4012 H   0  0  0  0  0  0  0  0  0  0  0  0
   27.7492   54.0568    0.5132 H   0  0  0  0  0  0  0  0  0  0  0  0
   27.7784   55.3103    1.7301 H   0  0  0  0  0  0  0  0  0  0  0  0
  1  2  2  0  0  0  0
  1  6  1  0  0  0  0
  2  3  1  0  0  0  0
  2 39  1  0  0  0  0
  3  4  2  0  0  0  0
  3 40  1  0  0  0  0
  4  7  1  0  0  0  0
  5  4  1  0  0  0  0
  5 41  1  0  0  0  0
  6  5  2  0  0  0  0
  6 42  1  0  0  0  0
  7 12  1  0  0  0  0
  8  7  1  0  0  0  0
  8 10  1  0  0  0  0
  9  8  2  0  0  0  0
 10 11  1  0  0  0  0
 13 10  1  0  0  0  0
 13 14  2  0  0  0  0
 14 43  1  0  0  0  0
 15 14  1  0  0  0  0
 15 44  1  0  0  0  0
 16 15  2  0  0  0  0
 17 18  2  0  0  0  0
 17 16  1  0  0  0  0
 17 45  1  0  0  0  0
 18 13  1  0  0  0  0
 18 46  1  0  0  0  0
 19 16  1  0  0  0  0
 19 20  1  0  0  0  0
 20 22  1  0  0  0  0
 20 21  1  0  0  0  0
 23 20  1  0  0  0  0
 24 30  1  0  0  0  0
 24  1  1  0  0  0  0
 25 24  2  0  0  0  0
 25 47  1  0  0  0  0
 26 27  2  0  0  0  0
 26 25  1  0  0  0  0
 26 48  1  0  0  0  0
 27 28  1  0  0  0  0
 28 29  1  0  0  0  0
 28 30  2  0  0  0  0
 29 31  1  0  0  0  0
 30 33  1  0  0  0  0
 31 33  1  0  0  0  0
 31 34  1  0  0  0  0
 32 29  1  0  0  0  0
 33 35  1  6  0  0  0
 35 49  1  0  0  0  0
 35 50  1  0  0  0  0
 36 27  1  0  0  0  0
 37 36  1  0  0  0  0
 37 51  1  0  0  0  0
 37 52  1  0  0  0  0
 37 53  1  0  0  0  0
 38 36  1  0  0  0  0
 38 54  1  0  0  0  0
 38 55  1  0  0  0  0
 38 56  1  0  0  0  0
M  END
>  <REMARK>
 VINA RESULT:      -6.8      1.549      2.126
  6 active torsions:
  status: ('A' for Active; 'I' for Inactive)
    1  A    between atoms: N_2  and  C_4 
    2  A    between atoms: C_7  and  C_8 
    3  A    between atoms: C_11  and  N_12 
       I    between atoms: N_12  and  C_14 
       I    between atoms: C_14  and  N_16 
    4  A    between atoms: N_16  and  C_18 
    5  A    between atoms: C_21  and  O_22 
    6  A    between atoms: O_22  and  C_23 

>  <TORSDO>
F 6

$$$$
resistance_project/docking/5319283d3047ac55/Q9UM73_WT/docked/molecule_0002_out.pdbqt
 OpenBabel09232609183D

 56 59  0  0  1  0  0  0  0  0999 V2000
   33.4130   47.7950    7.1800 C   0  0  0  0  0  0  0  0  0  0  0  0
   32.6970   48.3090    8.2170 C   0  0  0  0  0  0  0  0  0  0  0  0
   31.5920   49.0920    7.9630 C   0  0  0  0  0  0  0  0  0  0  0  0
   31.1530   49.3960    6.6890 C   0  0  0  0  0  0  0  0  0  0  0  0
   31.8770   48.8760    5.6420 C   0  0  0  0  0  0  0  0  0  0  0  0
   32.9850   48.0900    5.8790 C   0  0  0  0  0  0  0  0  0  0  0  0
   29.9950   50.2170    6.5050 N   0  0  0  0  0  0  0  0  0  0  0  0
   28.7040   49.6820    6.5450 C   0  0  0  0  0  0  0  0  0  0  0  0
   28.5600   48.4620    6.8130 O   0  0  0  0  0  0  0  0  0  0  0  0
   27.5100   50.4220    6.3020 N   0  0  0  0  0  0  0  0  0  0  0  0
   27.5670   51.4050    6.0350 H   0  0  0  0  0  0  0  0  0  0  0  0
   30.1150   51.2160    6.3400 H   0  0  0  0  0  0  0  0  0  0  0  0
   26.2200   49.7910    6.4290 C   0  0  0  0  0  0  0  0  0  0  0  0
   25.3310   49.7640    5.3890 C   0  0  0  0  0  0  0  0  0  0  0  0
   24.0920   49.1370    5.5650 C   0  0  0  0  0  0  0  0  0  0  0  0
   23.7690   48.5460    6.7900 C   0  0  0  0  0  0  0  0  0  0  0  0
   24.6780   48.5790    7.8380 C   0  0  0  0  0  0  0  0  0  0  0  0
   25.9060   49.2100    7.6360 C   0  0  0  0  0  0  0  0  0  0  0  0
   22.5250   47.9450    6.8880 O   0  0  0  0  0  0  0  0  0  0  0  0
   21.3430   48.6750    7.1750 C   0  0  0  0  0  0  0  0  0  0  0  0
   21.6300   49.7950    7.9510 F   0  0  0  0  0  0  0  0  0  0  0  0
   20.6840   49.0440    6.0160 F   0  0  0  0  0  0  0  0  0  0  0  0
   20.4320   47.9050    7.9060 F   0  0  0  0  0  0  0  0  0  0  0  0
   34.5860   46.9630    7.2900 C   0  0  0  0  0  0  0  0  0  0  0  0
   35.8270   47.5650    7.1890 C   0  0  0  0  0  0  0  0  0  0  0  0
   37.0030   46.8470    7.2870 C   0  0  0  0  0  0  0  0  0  0  0  0
   36.9520   45.4720    7.4960 C   0  0  0  0  0  0  0  0  0  0  0  0
   35.7270   44.8540    7.6010 C   0  0  0  0  0  0  0  0  0  0  0  0
   35.3380   43.5920    7.7940 N   0  0  0  0  0  0  0  0  0  0  0  0
   34.5650   45.6000    7.4980 C   0  0  0  0  0  0  0  0  0  0  0  0
   34.0380   43.4780    7.8220 N   0  0  0  0  0  0  0  0  0  0  0  0
   35.9820   42.8090    7.9070 H   0  0  0  0  0  0  0  0  0  0  0  0
   33.5390   44.7220    7.6380 C   0  0  2  0  0  0  0  0  0  0  0  0
   33.5030   42.6200    7.9560 H   0  0  0  0  0  0  0  0  0  0  0  0
   32.1670   45.0180    7.6030 N   0  0  0  0  0  0  0  0  0  0  0  0
   38.1240   44.6850    7.6050 N   0  0  0  0  0  0  0  0  0  0  0  0
   38.3150   43.5590    6.7040 C   0  0  0  0  0  0  0  0  0  0  0  0
   39.1690   44.9590    8.5950 C   0  0  0  0  0  0  0  0  0  0  0  0
   32.9806   48.1131    9.1897 H   0  0  0  0  0  0  0  0  0  0  0  0
   31.0654   49.4707    8.7657 H   0  0  0  0  0  0  0  0  0  0  0  0
   31.5889   49.0755    4.6713 H   0  0  0  0  0  0  0  0  0  0  0  0
   33.5123   47.7094    5.0777 H   0  0  0  0  0  0  0  0  0  0  0  0
   25.5713   50.2008    4.4854 H   0  0  0  0  0  0  0  0  0  0  0  0
   23.4142   49.1109    4.7872 H   0  0  0  0  0  0  0  0  0  0  0  0
   24.4507   48.1463    8.7469 H   0  0  0  0  0  0  0  0  0  0  0  0
   26.5917   49.2415    8.4066 H   0  0  0  0  0  0  0  0  0  0  0  0
   35.8761   48.5843    7.0353 H   0  0  0  0  0  0  0  0  0  0  0  0
   37.9131   47.3268    7.2058 H   0  0  0  0  0  0  0  0  0  0  0  0
   32.0388   46.0187    7.4531 H   0  0  0  0  0  0  0  0  0  0  0  0
   31.7385   44.7493    8.4888 H   0  0  0  0  0  0  0  0  0  0  0  0
   37.4765   43.4846    6.0434 H   0  0  0  0  0  0  0  0  0  0  0  0
   38.4016   42.6573    7.2734 H   0  0  0  0  0  0  0  0  0  0  0  0
   39.2073   43.7070    6.1324 H   0  0  0  0  0  0  0  0  0  0  0  0
   39.9546   44.2398    8.4927 H   0  0  0  0  0  0  0  0  0  0  0  0
   38.7535   44.8958    9.5790 H   0  0  0  0  0  0  0  0  0  0  0  0
   39.5620   45.9415    8.4362 H   0  0  0  0  0  0  0  0  0  0  0  0
  1 24  1  0  0  0  0
  1  2  2  0  0  0  0
  2 39  1  0  0  0  0
  3  2  1  0  0  0  0
  3 40  1  0  0  0  0
  4  3  2  0  0  0  0
  5  6  2  0  0  0  0
  5  4  1  0  0  0  0
  5 41  1  0  0  0  0
  6  1  1  0  0  0  0
  6 42  1  0  0  0  0
  7  8  1  0  0  0  0
  7  4  1  0  0  0  0
  8  9  2  0  0  0  0
 10 13  1  0  0  0  0
 10  8  1  0  0  0  0
 11 10  1  0  0  0  0
 12  7  1  0  0  0  0
 13 18  2  0  0  0  0
 14 15  2  0  0  0  0
 14 13  1  0  0  0  0
 14 43  1  0  0  0  0
 15 16  1  0  0  0  0
 15 44  1  0  0  0  0
 16 19  1  0  0  0  0
 16 17  2  0  0  0  0
 17 45  1  0  0  0  0
 18 17  1  0  0  0  0
 18 46  1  0  0  0  0
 19 20  1  0  0  0  0
 20 23  1  0  0  0  0
 20 21  1  0  0  0  0
 22 20  1  0  0  0  0
 24 30  1  0  0  0  0
 25 26  1  0  0  0  0
 25 24  2  0  0  0  0
 25 47  1  0  0  0  0
 26 27  2  0  0  0  0
 26 48  1  0  0  0  0
 27 28  1  0  0  0  0
 27 36  1  0  0  0  0
 28 29  1  0  0  0  0
 29 31  1  0  0  0  0
 29 32  1  0  0  0  0
 30 28  2  0  0  0  0
 30 33  1  0  0  0  0
 31 34  1  0  0  0  0
 33 35  1  6  0  0  0
 33 31  1  0  0  0  0
 35 49  1  0  0  0  0
 35 50  1  0  0  0  0
 36 38  1  0  0  0  0
 37 36  1  0  0  0  0
 37 51  1  0  0  0  0
 37 52  1  0  0  0  0
 37 53  1  0  0  0  0
 38 54  1  0  0  0  0
 38 55  1  0  0  0  0
 38 56  1  0  0  0  0
M  END
>  <REMARK>
 VINA RESULT:      -6.7      5.893     11.616
  6 active torsions:
  status: ('A' for Active; 'I' for Inactive)
    1  A    between atoms: N_2  and  C_4 
    2  A    between atoms: C_7  and  C_8 
    3  A    between atoms: C_11  and  N_12 
       I    between atoms: N_12  and  C_14 
       I    between atoms: C_14  and  N_16 
    4  A    between atoms: N_16  and  C_18 
    5  A    between atoms: C_21  and  O_22 
    6  A    between atoms: O_22  and  C_23 

>  <TORSDO>
F 6

$$$$
