resistance_project/docking/5319283d3047ac55/Q9UM73_WT/docked/molecule_0005_out.pdbqt
 OpenBabel09232609193D

 50 52  0  0  1  0  0  0  0  0999 V2000
   29.6620   46.5690    7.9770 C   0  0  1  0  0  0  0  0  0  0  0  0
   29.8200   47.4990    6.9900 N   0  0  0  0  0  0  0  0  0  0  0  0
   30.6350   47.4710    6.3760 H   0  0  0  0  0  0  0  0  0  0  0  0
   28.8840   48.4540    6.8440 C   0  0  0  0  0  0  0  0  0  0  0  0
   28.9720   49.3430    5.9500 O   0  0  0  0  0  0  0  0  0  0  0  0
   27.7720   48.5170    7.6580 C   0  0  1  0  0  0  0  0  0  0  0  0
   27.6300   47.5910    8.6260 N   0  0  0  0  0  0  0  0  0  0  0  0
   26.8130   47.6270    9.2360 H   0  0  0  0  0  0  0  0  0  0  0  0
   28.5460   46.6190    8.8070 C   0  0  0  0  0  0  0  0  0  0  0  0
   28.4290   45.7480    9.7050 O   0  0  0  0  0  0  0  0  0  0  0  0
   30.5990   45.6640    8.0780 C   0  0  0  0  0  0  0  0  0  0  0  0
   31.9390   45.8280    8.5610 C   0  0  0  0  0  0  0  0  0  0  0  0
   32.6850   44.8000    9.1290 C   0  0  0  0  0  0  0  0  0  0  0  0
   33.8720   45.3120    9.4600 N   0  0  0  0  0  0  0  0  0  0  0  0
   33.8780   46.6120    9.1160 C   0  0  0  0  0  0  0  0  0  0  0  0
   34.6410   44.8040    9.8980 H   0  0  0  0  0  0  0  0  0  0  0  0
   32.6880   46.9250    8.5650 N   0  0  0  0  0  0  0  0  0  0  0  0
   32.4120   47.8410    8.2120 H   0  0  0  0  0  0  0  0  0  0  0  0
   32.2310   43.3990    9.3230 C   0  0  0  0  0  0  0  0  0  0  0  0
   30.7940   43.3310    9.8100 C   0  0  0  0  0  0  0  0  0  0  0  0
   33.0840   42.7240   10.3900 C   0  0  0  0  0  0  0  0  0  0  0  0
   32.4240   42.6330    8.0380 C   0  0  0  0  0  0  0  0  0  0  0  0
   26.8330   49.4470    7.5360 C   0  0  0  0  0  0  0  0  0  0  0  0
   25.6400   49.2810    6.7500 C   0  0  0  0  0  0  0  0  0  0  0  0
   24.6530   48.4120    7.1690 C   0  0  0  0  0  0  0  0  0  0  0  0
   23.5270   48.2870    6.3800 C   0  0  0  0  0  0  0  0  0  0  0  0
   22.5290   47.4380    6.7590 F   0  0  0  0  0  0  0  0  0  0  0  0
   23.3660   49.0030    5.1950 C   0  0  0  0  0  0  0  0  0  0  0  0
   24.3740   49.8720    4.7960 C   0  0  0  0  0  0  0  0  0  0  0  0
   25.5030   50.0060    5.5730 C   0  0  0  0  0  0  0  0  0  0  0  0
   26.4690   50.8440    5.1820 F   0  0  0  0  0  0  0  0  0  0  0  0
   29.1369   46.1542    8.8119 H   0  0  0  0  0  0  0  0  0  0  0  0
   27.9203   49.2188    6.8640 H   0  0  0  0  0  0  0  0  0  0  0  0
   30.7144   45.2823    7.0851 H   0  0  0  0  0  0  0  0  0  0  0  0
   30.1986   45.1096    8.9009 H   0  0  0  0  0  0  0  0  0  0  0  0
   34.0396   47.2128    9.9865 H   0  0  0  0  0  0  0  0  0  0  0  0
   30.1514   43.7948    9.0910 H   0  0  0  0  0  0  0  0  0  0  0  0
   30.7100   43.8427   10.7459 H   0  0  0  0  0  0  0  0  0  0  0  0
   30.5082   42.3076    9.9361 H   0  0  0  0  0  0  0  0  0  0  0  0
   34.1114   42.7461   10.0920 H   0  0  0  0  0  0  0  0  0  0  0  0
   32.7689   41.7084   10.5087 H   0  0  0  0  0  0  0  0  0  0  0  0
   32.9707   43.2435   11.3186 H   0  0  0  0  0  0  0  0  0  0  0  0
   31.8370   43.0814    7.2639 H   0  0  0  0  0  0  0  0  0  0  0  0
   32.1146   41.6183    8.1777 H   0  0  0  0  0  0  0  0  0  0  0  0
   33.4572   42.6559    7.7609 H   0  0  0  0  0  0  0  0  0  0  0  0
   26.4993   49.6558    8.5309 H   0  0  0  0  0  0  0  0  0  0  0  0
   27.3521   50.1900    6.9673 H   0  0  0  0  0  0  0  0  0  0  0  0
   24.7534   47.8733    8.0435 H   0  0  0  0  0  0  0  0  0  0  0  0
   22.5136   48.8897    4.6244 H   0  0  0  0  0  0  0  0  0  0  0  0
   24.2772   50.4136    3.9229 H   0  0  0  0  0  0  0  0  0  0  0  0
  1 11  1  0  0  0  0
  1  9  1  0  0  0  0
  1 32  1  1  0  0  0
  2  1  1  0  0  0  0
  3  2  1  0  0  0  0
  4  2  1  0  0  0  0
  4  6  1  0  0  0  0
  5  4  2  0  0  0  0
  6  7  1  0  0  0  0
  6 33  1  6  0  0  0
  7  9  1  0  0  0  0
  7  8  1  0  0  0  0
  9 10  2  0  0  0  0
 11 12  1  0  0  0  0
 11 34  1  0  0  0  0
 11 35  1  0  0  0  0
 12 17  1  0  0  0  0
 12 13  2  0  0  0  0
 13 19  1  0  0  0  0
 13 14  1  0  0  0  0
 14 16  1  0  0  0  0
 15 14  1  0  0  0  0
 15 36  1  0  0  0  0
 17 15  1  0  0  0  0
 18 17  1  0  0  0  0
 19 20  1  0  0  0  0
 19 21  1  0  0  0  0
 20 37  1  0  0  0  0
 20 38  1  0  0  0  0
 20 39  1  0  0  0  0
 21 40  1  0  0  0  0
 21 41  1  0  0  0  0
 21 42  1  0  0  0  0
 22 19  1  0  0  0  0
 22 43  1  0  0  0  0
 22 44  1  0  0  0  0
 22 45  1  0  0  0  0
 23  6  1  0  0  0  0
 23 46  1  0  0  0  0
 23 47  1  0  0  0  0
 24 25  1  0  0  0  0
 24 23  1  0  0  0  0
 25 48  1  0  0  0  0
 26 27  1  0  0  0  0
 26 25  2  0  0  0  0
 28 26  1  0  0  0  0
 28 49  1  0  0  0  0
 29 28  2  0  0  0  0
 29 30  1  0  0  0  0
 29 50  1  0  0  0  0
 30 24  2  0  0  0  0
 31 30  1  0  0  0  0
M  END
>  <MODEL>
1

>  <REMARK>
 VINA RESULT:      -8.4      0.000      0.000
  5 active torsions:
  status: ('A' for Active; 'I' for Inactive)
    1  A    between atoms: C_2  and  C_5 
    2  A    between atoms: C_6  and  C_7 
    3  A    between atoms: C_7  and  CA_8 
    4  A    between atoms: CA_13  and  C_14 
    5  A    between atoms: C_14  and  C_15 

>  <TORSDO>
F 5

$$$$
resistance_project/docking/5319283d3047ac55/Q9UM73_WT/docked/molecule_0005_out.pdbqt
 OpenBabel09232609193D

 50 52  0  0  1  0  0  0  0  0999 V2000
   28.4420   47.3590    8.1210 C   0  0  2  0  0  0  0  0  0  0  0  0
   27.9650   46.6720    9.1990 N   0  0  0  0  0  0  0  0  0  0  0  0
   27.1940   47.0460    9.7540 H   0  0  0  0  0  0  0  0  0  0  0  0
   28.5300   45.4930    9.5180 C   0  0  0  0  0  0  0  0  0  0  0  0
   28.1340   44.8090   10.5040 O   0  0  0  0  0  0  0  0  0  0  0  0
   29.5730   44.9630    8.7870 C   0  0  1  0  0  0  0  0  0  0  0  0
   30.0320   45.6530    7.7260 N   0  0  0  0  0  0  0  0  0  0  0  0
   30.8030   45.2720    7.1770 H   0  0  0  0  0  0  0  0  0  0  0  0
   29.4940   46.8380    7.3740 C   0  0  0  0  0  0  0  0  0  0  0  0
   29.9100   47.4950    6.3870 O   0  0  0  0  0  0  0  0  0  0  0  0
   27.8600   48.4980    7.8540 C   0  0  0  0  0  0  0  0  0  0  0  0
   26.4730   48.7390    7.5780 C   0  0  0  0  0  0  0  0  0  0  0  0
   26.0170   49.7750    6.7690 C   0  0  0  0  0  0  0  0  0  0  0  0
   24.6860   49.6950    6.7390 N   0  0  0  0  0  0  0  0  0  0  0  0
   24.3130   48.6490    7.4980 C   0  0  0  0  0  0  0  0  0  0  0  0
   24.0600   50.3180    6.2280 H   0  0  0  0  0  0  0  0  0  0  0  0
   25.4150   48.0650    8.0120 N   0  0  0  0  0  0  0  0  0  0  0  0
   25.4320   47.2500    8.6240 H   0  0  0  0  0  0  0  0  0  0  0  0
   26.8670   50.7770    6.0760 C   0  0  0  0  0  0  0  0  0  0  0  0
   27.5310   51.7310    7.0530 C   0  0  0  0  0  0  0  0  0  0  0  0
   26.0080   51.6310    5.1510 C   0  0  0  0  0  0  0  0  0  0  0  0
   27.8780   50.0600    5.2170 C   0  0  0  0  0  0  0  0  0  0  0  0
   30.1490   43.8030    9.0790 C   0  0  0  0  0  0  0  0  0  0  0  0
   31.5570   43.5480    8.9290 C   0  0  0  0  0  0  0  0  0  0  0  0
   32.4760   44.3720    9.5470 C   0  0  0  0  0  0  0  0  0  0  0  0
   33.8160   44.0850    9.3720 C   0  0  0  0  0  0  0  0  0  0  0  0
   34.7560   44.8750    9.9660 F   0  0  0  0  0  0  0  0  0  0  0  0
   34.2520   43.0090    8.6040 C   0  0  0  0  0  0  0  0  0  0  0  0
   33.3060   42.1950    7.9940 C   0  0  0  0  0  0  0  0  0  0  0  0
   31.9670   42.4680    8.1590 C   0  0  0  0  0  0  0  0  0  0  0  0
   31.0620   41.6800    7.5670 F   0  0  0  0  0  0  0  0  0  0  0  0
   29.1056   47.4654    7.2884 H   0  0  0  0  0  0  0  0  0  0  0  0
   29.1589   44.4550    9.6328 H   0  0  0  0  0  0  0  0  0  0  0  0
   28.0798   49.1184    8.6976 H   0  0  0  0  0  0  0  0  0  0  0  0
   28.2490   48.6504    6.8689 H   0  0  0  0  0  0  0  0  0  0  0  0
   23.7792   47.9422    6.8976 H   0  0  0  0  0  0  0  0  0  0  0  0
   28.1315   52.4333    6.5134 H   0  0  0  0  0  0  0  0  0  0  0  0
   28.1496   51.1770    7.7278 H   0  0  0  0  0  0  0  0  0  0  0  0
   26.7798   52.2550    7.6062 H   0  0  0  0  0  0  0  0  0  0  0  0
   25.5158   51.0016    4.4394 H   0  0  0  0  0  0  0  0  0  0  0  0
   26.6287   52.3341    4.6360 H   0  0  0  0  0  0  0  0  0  0  0  0
   25.2764   52.1569    5.7282 H   0  0  0  0  0  0  0  0  0  0  0  0
   27.3707   49.3998    4.5449 H   0  0  0  0  0  0  0  0  0  0  0  0
   28.5392   49.4952    5.8405 H   0  0  0  0  0  0  0  0  0  0  0  0
   28.4414   50.7762    4.6562 H   0  0  0  0  0  0  0  0  0  0  0  0
   29.6549   43.0723    8.4734 H   0  0  0  0  0  0  0  0  0  0  0  0
   30.0497   43.7868   10.1443 H   0  0  0  0  0  0  0  0  0  0  0  0
   32.1725   45.1748   10.1201 H   0  0  0  0  0  0  0  0  0  0  0  0
   35.2600   42.8194    8.4899 H   0  0  0  0  0  0  0  0  0  0  0  0
   33.6052   41.3907    7.4208 H   0  0  0  0  0  0  0  0  0  0  0  0
  1  2  1  0  0  0  0
  1 32  1  6  0  0  0
  2  4  1  0  0  0  0
  2  3  1  0  0  0  0
  4  5  2  0  0  0  0
  6 23  1  0  0  0  0
  6  4  1  0  0  0  0
  6 33  1  6  0  0  0
  7  6  1  0  0  0  0
  8  7  1  0  0  0  0
  9  7  1  0  0  0  0
  9  1  1  0  0  0  0
 10  9  2  0  0  0  0
 11  1  1  0  0  0  0
 11 34  1  0  0  0  0
 11 35  1  0  0  0  0
 12 11  1  0  0  0  0
 12 17  1  0  0  0  0
 13 12  2  0  0  0  0
 14 13  1  0  0  0  0
 14 15  1  0  0  0  0
 15 17  1  0  0  0  0
 15 36  1  0  0  0  0
 16 14  1  0  0  0  0
 17 18  1  0  0  0  0
 19 13  1  0  0  0  0
 19 20  1  0  0  0  0
 20 37  1  0  0  0  0
 20 38  1  0  0  0  0
 20 39  1  0  0  0  0
 21 19  1  0  0  0  0
 21 40  1  0  0  0  0
 21 41  1  0  0  0  0
 21 42  1  0  0  0  0
 22 19  1  0  0  0  0
 22 43  1  0  0  0  0
 22 44  1  0  0  0  0
 22 45  1  0  0  0  0
 23 46  1  0  0  0  0
 23 47  1  0  0  0  0
 24 23  1  0  0  0  0
 24 25  2  0  0  0  0
 25 48  1  0  0  0  0
 26 25  1  0  0  0  0
 26 27  1  0  0  0  0
 28 26  2  0  0  0  0
 28 49  1  0  0  0  0
 29 30  2  0  0  0  0
 29 28  1  0  0  0  0
 29 50  1  0  0  0  0
 30 24  1  0  0  0  0
 31 30  1  0  0  0  0
M  END
>  <REMARK>
 VINA RESULT:      -8.3      3.336      8.528
  5 active torsions:
  status: ('A' for Active; 'I' for Inactive)
    1  A    between atoms: C_2  and  C_5 
    2  A    between atoms: C_6  and  C_7 
    3  A    between atoms: C_7  and  CA_8 
    4  A    between atoms: CA_13  and  C_14 
    5  A    between atoms: C_14  and  C_15 

>  <TORSDO>
F 5

$$$$
resistance_project/docking/5319283d3047ac55/Q9UM73_WT/docked/molecule_0005_out.pdbqt
 OpenBabel09232609193D

 50 52  0  0  1  0  0  0  0  0999 V2000
   29.0980   48.1020    7.4070 C   0  0  2  0  0  0  0  0  0  0  0  0
   29.8570   47.8400    6.3030 N   0  0  0  0  0  0  0  0  0  0  0  0
   29.7400   48.3890    5.4510 H   0  0  0  0  0  0  0  0  0  0  0  0
   30.7600   46.8440    6.3590 C   0  0  0  0  0  0  0  0  0  0  0  0
   31.4940   46.5530    5.3720 O   0  0  0  0  0  0  0  0  0  0  0  0
   30.9410   46.0860    7.4970 C   0  0  1  0  0  0  0  0  0  0  0  0
   30.1850   46.3570    8.5780 N   0  0  0  0  0  0  0  0  0  0  0  0
   30.3080   45.8030    9.4250 H   0  0  0  0  0  0  0  0  0  0  0  0
   29.2680   47.3450    8.5620 C   0  0  0  0  0  0  0  0  0  0  0  0
   28.5540   47.6110    9.5620 O   0  0  0  0  0  0  0  0  0  0  0  0
   28.2350   49.0770    7.3010 C   0  0  0  0  0  0  0  0  0  0  0  0
   26.8050   48.9920    7.2580 C   0  0  0  0  0  0  0  0  0  0  0  0
   26.0060   49.8250    6.4820 C   0  0  0  0  0  0  0  0  0  0  0  0
   24.7390   49.4630    6.6900 N   0  0  0  0  0  0  0  0  0  0  0  0
   24.7340   48.4410    7.5640 C   0  0  0  0  0  0  0  0  0  0  0  0
   23.9170   49.8870    6.2600 H   0  0  0  0  0  0  0  0  0  0  0  0
   26.0060   48.1550    7.9100 N   0  0  0  0  0  0  0  0  0  0  0  0
   26.3030   47.4250    8.5580 H   0  0  0  0  0  0  0  0  0  0  0  0
   26.4890   50.9120    5.5910 C   0  0  0  0  0  0  0  0  0  0  0  0
   27.2200   51.9960    6.3640 C   0  0  0  0  0  0  0  0  0  0  0  0
   25.3040   51.5870    4.9120 C   0  0  0  0  0  0  0  0  0  0  0  0
   27.3520   50.3170    4.5070 C   0  0  0  0  0  0  0  0  0  0  0  0
   31.8240   45.0990    7.5800 C   0  0  0  0  0  0  0  0  0  0  0  0
   32.5790   44.7980    8.7670 C   0  0  0  0  0  0  0  0  0  0  0  0
   33.5030   45.7050    9.2460 C   0  0  0  0  0  0  0  0  0  0  0  0
   34.2010   45.3690   10.3880 C   0  0  0  0  0  0  0  0  0  0  0  0
   35.1240   46.2380   10.8930 F   0  0  0  0  0  0  0  0  0  0  0  0
   34.0010   44.1630   11.0550 C   0  0  0  0  0  0  0  0  0  0  0  0
   33.0650   43.2680   10.5530 C   0  0  0  0  0  0  0  0  0  0  0  0
   32.3600   43.5890    9.4150 C   0  0  0  0  0  0  0  0  0  0  0  0
   31.4610   42.7220    8.9370 F   0  0  0  0  0  0  0  0  0  0  0  0
   28.8002   47.9266    8.4196 H   0  0  0  0  0  0  0  0  0  0  0  0
   31.5341   45.9335    6.6196 H   0  0  0  0  0  0  0  0  0  0  0  0
   28.4429   49.7138    8.1354 H   0  0  0  0  0  0  0  0  0  0  0  0
   28.4109   49.3362    6.2779 H   0  0  0  0  0  0  0  0  0  0  0  0
   24.2837   47.5829    7.1104 H   0  0  0  0  0  0  0  0  0  0  0  0
   27.5497   52.7562    5.6870 H   0  0  0  0  0  0  0  0  0  0  0  0
   28.0661   51.5702    6.8617 H   0  0  0  0  0  0  0  0  0  0  0  0
   26.5592   52.4252    7.0878 H   0  0  0  0  0  0  0  0  0  0  0  0
   25.6573   52.3684    4.2720 H   0  0  0  0  0  0  0  0  0  0  0  0
   24.6552   52.0008    5.6554 H   0  0  0  0  0  0  0  0  0  0  0  0
   24.7673   50.8659    4.3316 H   0  0  0  0  0  0  0  0  0  0  0  0
   27.7025   51.0958    3.8624 H   0  0  0  0  0  0  0  0  0  0  0  0
   26.7778   49.6152    3.9389 H   0  0  0  0  0  0  0  0  0  0  0  0
   28.1881   49.8178    4.9505 H   0  0  0  0  0  0  0  0  0  0  0  0
   32.5478   45.2912    6.8158 H   0  0  0  0  0  0  0  0  0  0  0  0
   31.1828   44.2444    7.5222 H   0  0  0  0  0  0  0  0  0  0  0  0
   33.6662   46.6040    8.7662 H   0  0  0  0  0  0  0  0  0  0  0  0
   34.5385   43.9384   11.9068 H   0  0  0  0  0  0  0  0  0  0  0  0
   32.8991   42.3681   11.0301 H   0  0  0  0  0  0  0  0  0  0  0  0
  1  9  1  0  0  0  0
  1 32  1  1  0  0  0
  2  4  1  0  0  0  0
  2  1  1  0  0  0  0
  3  2  1  0  0  0  0
  4  6  1  0  0  0  0
  5  4  2  0  0  0  0
  6 23  1  0  0  0  0
  6  7  1  0  0  0  0
  6 33  1  1  0  0  0
  7  8  1  0  0  0  0
  9  7  1  0  0  0  0
  9 10  2  0  0  0  0
 11  1  1  0  0  0  0
 11 34  1  0  0  0  0
 11 35  1  0  0  0  0
 12 11  1  0  0  0  0
 12 17  1  0  0  0  0
 13 14  1  0  0  0  0
 13 12  2  0  0  0  0
 14 15  1  0  0  0  0
 15 17  1  0  0  0  0
 15 36  1  0  0  0  0
 16 14  1  0  0  0  0
 17 18  1  0  0  0  0
 19 20  1  0  0  0  0
 19 13  1  0  0  0  0
 20 37  1  0  0  0  0
 20 38  1  0  0  0  0
 20 39  1  0  0  0  0
 21 19  1  0  0  0  0
 21 40  1  0  0  0  0
 21 41  1  0  0  0  0
 21 42  1  0  0  0  0
 22 19  1  0  0  0  0
 22 43  1  0  0  0  0
 22 44  1  0  0  0  0
 22 45  1  0  0  0  0
 23 24  1  0  0  0  0
 23 46  1  0  0  0  0
 23 47  1  0  0  0  0
 24 25  2  0  0  0  0
 24 30  1  0  0  0  0
 25 26  1  0  0  0  0
 25 48  1  0  0  0  0
 26 27  1  0  0  0  0
 26 28  2  0  0  0  0
 28 49  1  0  0  0  0
 29 28  1  0  0  0  0
 29 50  1  0  0  0  0
 30 29  2  0  0  0  0
 31 30  1  0  0  0  0
M  END
>  <REMARK>
 VINA RESULT:      -7.8      3.386      8.503
  5 active torsions:
  status: ('A' for Active; 'I' for Inactive)
    1  A    between atoms: C_2  and  C_5 
    2  A    between atoms: C_6  and  C_7 
    3  A    between atoms: C_7  and  CA_8 
    4  A    between atoms: CA_13  and  C_14 
    5  A    between atoms: C_14  and  C_15 

>  <TORSDO>
F 5

$$$$
resistance_project/docking/5319283d3047ac55/Q9UM73_WT/docked/molecule_0005_out.pdbqt
 OpenBabel09232609193D

 50 52  0  0  1  0  0  0  0  0999 V2000
   29.7680   46.6780    7.4170 C   0  0  1  0  0  0  0  0  0  0  0  0
   29.8360   47.8010    6.6440 N   0  0  0  0  0  0  0  0  0  0  0  0
   30.6270   47.9520    6.0170 H   0  0  0  0  0  0  0  0  0  0  0  0
   28.8430   48.7060    6.7270 C   0  0  0  0  0  0  0  0  0  0  0  0
   28.8480   49.7650    6.0380 O   0  0  0  0  0  0  0  0  0  0  0  0
   27.7620   48.5280    7.5650 C   0  0  1  0  0  0  0  0  0  0  0  0
   27.7090   47.4140    8.3200 N   0  0  0  0  0  0  0  0  0  0  0  0
   26.9160   47.2710    8.9450 H   0  0  0  0  0  0  0  0  0  0  0  0
   28.6840   46.4850    8.2680 C   0  0  0  0  0  0  0  0  0  0  0  0
   28.6500   45.4400    8.9660 O   0  0  0  0  0  0  0  0  0  0  0  0
   30.7560   45.8320    7.3010 C   0  0  0  0  0  0  0  0  0  0  0  0
   31.7820   45.5320    8.2570 C   0  0  0  0  0  0  0  0  0  0  0  0
   33.0590   46.0810    8.2160 C   0  0  0  0  0  0  0  0  0  0  0  0
   33.7360   45.5820    9.2500 N   0  0  0  0  0  0  0  0  0  0  0  0
   32.9210   44.7490    9.9220 C   0  0  0  0  0  0  0  0  0  0  0  0
   34.7050   45.7940    9.4910 H   0  0  0  0  0  0  0  0  0  0  0  0
   31.7210   44.7220    9.3080 N   0  0  0  0  0  0  0  0  0  0  0  0
   30.9100   44.1760    9.5980 H   0  0  0  0  0  0  0  0  0  0  0  0
   33.5610   47.0430    7.2000 C   0  0  0  0  0  0  0  0  0  0  0  0
   33.1720   46.6340    5.7910 C   0  0  0  0  0  0  0  0  0  0  0  0
   35.0840   47.0830    7.2370 C   0  0  0  0  0  0  0  0  0  0  0  0
   33.0640   48.4260    7.5410 C   0  0  0  0  0  0  0  0  0  0  0  0
   26.7700   49.4030    7.6660 C   0  0  0  0  0  0  0  0  0  0  0  0
   25.4580   49.1930    7.1130 C   0  0  0  0  0  0  0  0  0  0  0  0
   24.4530   48.6700    7.9010 C   0  0  0  0  0  0  0  0  0  0  0  0
   23.2120   48.4870    7.3240 C   0  0  0  0  0  0  0  0  0  0  0  0
   22.1920   47.9710    8.0690 F   0  0  0  0  0  0  0  0  0  0  0  0
   22.9560   48.8100    5.9940 C   0  0  0  0  0  0  0  0  0  0  0  0
   23.9840   49.3360    5.2220 C   0  0  0  0  0  0  0  0  0  0  0  0
   25.2270   49.5240    5.7840 C   0  0  0  0  0  0  0  0  0  0  0  0
   26.2130   50.0310    5.0350 F   0  0  0  0  0  0  0  0  0  0  0  0
   29.3017   46.0631    8.1581 H   0  0  0  0  0  0  0  0  0  0  0  0
   27.8370   49.3789    6.9206 H   0  0  0  0  0  0  0  0  0  0  0  0
   31.2854   46.1530    6.4283 H   0  0  0  0  0  0  0  0  0  0  0  0
   30.1974   44.9224    7.3751 H   0  0  0  0  0  0  0  0  0  0  0  0
   32.8024   45.0960   10.9272 H   0  0  0  0  0  0  0  0  0  0  0  0
   33.5520   47.3512    5.0937 H   0  0  0  0  0  0  0  0  0  0  0  0
   32.1057   46.5915    5.7135 H   0  0  0  0  0  0  0  0  0  0  0  0
   33.5842   45.6710    5.5725 H   0  0  0  0  0  0  0  0  0  0  0  0
   35.4405   47.7765    6.5043 H   0  0  0  0  0  0  0  0  0  0  0  0
   35.4717   46.1086    7.0242 H   0  0  0  0  0  0  0  0  0  0  0  0
   35.4092   47.3919    8.2085 H   0  0  0  0  0  0  0  0  0  0  0  0
   33.4223   49.1234    6.8128 H   0  0  0  0  0  0  0  0  0  0  0  0
   33.4232   48.7054    8.5094 H   0  0  0  0  0  0  0  0  0  0  0  0
   31.9940   48.4302    7.5426 H   0  0  0  0  0  0  0  0  0  0  0  0
   26.6227   49.5561    8.7147 H   0  0  0  0  0  0  0  0  0  0  0  0
   27.1308   50.1955    7.0442 H   0  0  0  0  0  0  0  0  0  0  0  0
   24.6233   48.4239    8.8886 H   0  0  0  0  0  0  0  0  0  0  0  0
   22.0186   48.6612    5.5888 H   0  0  0  0  0  0  0  0  0  0  0  0
   23.8174   49.5841    4.2342 H   0  0  0  0  0  0  0  0  0  0  0  0
  1  9  1  0  0  0  0
  1 32  1  1  0  0  0
  2  4  1  0  0  0  0
  2  1  1  0  0  0  0
  3  2  1  0  0  0  0
  4  6  1  0  0  0  0
  5  4  2  0  0  0  0
  6 23  1  0  0  0  0
  6  7  1  0  0  0  0
  6 33  1  6  0  0  0
  7  8  1  0  0  0  0
  9  7  1  0  0  0  0
  9 10  2  0  0  0  0
 11  1  1  0  0  0  0
 11 12  1  0  0  0  0
 11 34  1  0  0  0  0
 11 35  1  0  0  0  0
 12 17  1  0  0  0  0
 13 12  2  0  0  0  0
 13 14  1  0  0  0  0
 14 16  1  0  0  0  0
 14 15  1  0  0  0  0
 15 36  1  0  0  0  0
 17 18  1  0  0  0  0
 17 15  1  0  0  0  0
 19 21  1  0  0  0  0
 19 22  1  0  0  0  0
 19 13  1  0  0  0  0
 20 19  1  0  0  0  0
 20 37  1  0  0  0  0
 20 38  1  0  0  0  0
 20 39  1  0  0  0  0
 21 40  1  0  0  0  0
 21 41  1  0  0  0  0
 21 42  1  0  0  0  0
 22 43  1  0  0  0  0
 22 44  1  0  0  0  0
 22 45  1  0  0  0  0
 23 46  1  0  0  0  0
 23 47  1  0  0  0  0
 24 23  1  0  0  0  0
 24 25  2  0  0  0  0
 25 48  1  0  0  0  0
 26 25  1  0  0  0  0
 26 27  1  0  0  0  0
 28 26  2  0  0  0  0
 28 49  1  0  0  0  0
 29 30  2  0  0  0  0
 29 28  1  0  0  0  0
 29 50  1  0  0  0  0
 30 24  1  0  0  0  0
 31 30  1  0  0  0  0
M  END
>  <REMARK>
 VINA RESULT:      -7.8      1.245      2.301
  5 active torsions:
  status: ('A' for Active; 'I' for Inactive)
    1  A    between atoms: C_2  and  C_5 
    2  A    between atoms: C_6  and  C_7 
    3  A    between atoms: C_7  and  CA_8 
    4  A    between atoms: CA_13  and  C_14 
    5  A    between atoms: C_14  and  C_15 

>  <TORSDO>
F 5

$$$$
resistance_project/docking/5319283d3047ac55/Q9UM73_WT/docked/molecule_0005_out.pdbqt
 OpenBabel09232609193D

 50 52  0  0  1  0  0  0  0  0999 V2000
   30.1940   46.8200    7.5910 C   0  0  1  0  0  0  0  0  0  0  0  0
   29.0780   46.3190    8.1980 N   0  0  0  0  0  0  0  0  0  0  0  0
   29.0800   45.3780    8.5940 H   0  0  0  0  0  0  0  0  0  0  0  0
   27.9760   47.0880    8.2630 C   0  0  0  0  0  0  0  0  0  0  0  0
   26.9120   46.6840    8.8110 O   0  0  0  0  0  0  0  0  0  0  0  0
   27.9440   48.3630    7.7370 C   0  0  2  0  0  0  0  0  0  0  0  0
   29.0530   48.8420    7.1430 N   0  0  0  0  0  0  0  0  0  0  0  0
   29.0420   49.7840    6.7490 H   0  0  0  0  0  0  0  0  0  0  0  0
   30.1770   48.1040    7.0560 C   0  0  0  0  0  0  0  0  0  0  0  0
   31.2200   48.5360    6.5040 O   0  0  0  0  0  0  0  0  0  0  0  0
   31.2370   46.0330    7.5540 C   0  0  0  0  0  0  0  0  0  0  0  0
   32.4170   46.0900    8.3660 C   0  0  0  0  0  0  0  0  0  0  0  0
   32.8720   45.0280    9.1400 C   0  0  0  0  0  0  0  0  0  0  0  0
   33.9830   45.4360    9.7550 N   0  0  0  0  0  0  0  0  0  0  0  0
   34.2240   46.7060    9.3850 C   0  0  0  0  0  0  0  0  0  0  0  0
   34.5520   44.8800   10.3950 H   0  0  0  0  0  0  0  0  0  0  0  0
   33.2590   47.1040    8.5320 N   0  0  0  0  0  0  0  0  0  0  0  0
   33.1870   48.0210    8.0910 H   0  0  0  0  0  0  0  0  0  0  0  0
   32.2280   43.6930    9.2520 C   0  0  0  0  0  0  0  0  0  0  0  0
   30.7690   43.8000    9.6600 C   0  0  0  0  0  0  0  0  0  0  0  0
   32.9230   42.8740   10.3330 C   0  0  0  0  0  0  0  0  0  0  0  0
   32.3930   42.9530    7.9480 C   0  0  0  0  0  0  0  0  0  0  0  0
   26.8710   49.1430    7.7880 C   0  0  0  0  0  0  0  0  0  0  0  0
   25.9680   49.3360    6.6840 C   0  0  0  0  0  0  0  0  0  0  0  0
   26.3700   50.0660    5.5830 C   0  0  0  0  0  0  0  0  0  0  0  0
   25.4670   50.2210    4.5510 C   0  0  0  0  0  0  0  0  0  0  0  0
   25.8250   50.9370    3.4460 F   0  0  0  0  0  0  0  0  0  0  0  0
   24.1880   49.6710    4.5910 C   0  0  0  0  0  0  0  0  0  0  0  0
   23.8090   48.9400    5.7100 C   0  0  0  0  0  0  0  0  0  0  0  0
   24.6990   48.7760    6.7480 C   0  0  0  0  0  0  0  0  0  0  0  0
   24.3270   48.0710    7.8220 F   0  0  0  0  0  0  0  0  0  0  0  0
   30.7203   47.5876    7.0631 H   0  0  0  0  0  0  0  0  0  0  0  0
   27.0861   47.9377    8.2145 H   0  0  0  0  0  0  0  0  0  0  0  0
   31.5965   46.1076    6.5490 H   0  0  0  0  0  0  0  0  0  0  0  0
   30.7924   45.1570    7.9781 H   0  0  0  0  0  0  0  0  0  0  0  0
   34.2228   47.3379   10.2485 H   0  0  0  0  0  0  0  0  0  0  0  0
   30.2349   44.3697    8.9284 H   0  0  0  0  0  0  0  0  0  0  0  0
   30.6992   44.2857   10.6108 H   0  0  0  0  0  0  0  0  0  0  0  0
   30.3449   42.8200    9.7282 H   0  0  0  0  0  0  0  0  0  0  0  0
   33.9598   42.7696   10.0901 H   0  0  0  0  0  0  0  0  0  0  0  0
   32.4714   41.9058   10.3926 H   0  0  0  0  0  0  0  0  0  0  0  0
   32.8257   43.3715   11.2753 H   0  0  0  0  0  0  0  0  0  0  0  0
   31.9151   43.5018    7.1635 H   0  0  0  0  0  0  0  0  0  0  0  0
   31.9463   41.9841    8.0288 H   0  0  0  0  0  0  0  0  0  0  0  0
   33.4346   42.8482    7.7267 H   0  0  0  0  0  0  0  0  0  0  0  0
   26.2731   48.7632    8.5899 H   0  0  0  0  0  0  0  0  0  0  0  0
   27.3233   50.1104    7.8550 H   0  0  0  0  0  0  0  0  0  0  0  0
   27.3134   50.4814    5.5336 H   0  0  0  0  0  0  0  0  0  0  0  0
   23.5339   49.8040    3.8039 H   0  0  0  0  0  0  0  0  0  0  0  0
   22.8667   48.5226    5.7630 H   0  0  0  0  0  0  0  0  0  0  0  0
  1  2  1  0  0  0  0
  1 32  1  6  0  0  0
  2  4  1  0  0  0  0
  2  3  1  0  0  0  0
  4  5  2  0  0  0  0
  6 23  1  0  0  0  0
  6  4  1  0  0  0  0
  6 33  1  6  0  0  0
  7  6  1  0  0  0  0
  8  7  1  0  0  0  0
  9  7  1  0  0  0  0
  9  1  1  0  0  0  0
 10  9  2  0  0  0  0
 11  1  1  0  0  0  0
 11 12  1  0  0  0  0
 11 34  1  0  0  0  0
 11 35  1  0  0  0  0
 12 17  1  0  0  0  0
 12 13  2  0  0  0  0
 13 19  1  0  0  0  0
 13 14  1  0  0  0  0
 14 16  1  0  0  0  0
 15 14  1  0  0  0  0
 15 36  1  0  0  0  0
 17 15  1  0  0  0  0
 18 17  1  0  0  0  0
 19 20  1  0  0  0  0
 19 21  1  0  0  0  0
 20 37  1  0  0  0  0
 20 38  1  0  0  0  0
 20 39  1  0  0  0  0
 21 40  1  0  0  0  0
 21 41  1  0  0  0  0
 21 42  1  0  0  0  0
 22 19  1  0  0  0  0
 22 43  1  0  0  0  0
 22 44  1  0  0  0  0
 22 45  1  0  0  0  0
 23 46  1  0  0  0  0
 23 47  1  0  0  0  0
 24 30  1  0  0  0  0
 24 23  1  0  0  0  0
 25 24  2  0  0  0  0
 25 48  1  0  0  0  0
 26 28  2  0  0  0  0
 26 25  1  0  0  0  0
 27 26  1  0  0  0  0
 28 29  1  0  0  0  0
 28 49  1  0  0  0  0
 29 30  2  0  0  0  0
 29 50  1  0  0  0  0
 30 31  1  0  0  0  0
M  END
>  <REMARK>
 VINA RESULT:      -7.7      1.103      2.355
  5 active torsions:
  status: ('A' for Active; 'I' for Inactive)
    1  A    between atoms: C_2  and  C_5 
    2  A    between atoms: C_6  and  C_7 
    3  A    between atoms: C_7  and  CA_8 
    4  A    between atoms: CA_13  and  C_14 
    5  A    between atoms: C_14  and  C_15 

>  <TORSDO>
F 5

$$$$
resistance_project/docking/5319283d3047ac55/Q9UM73_WT/docked/molecule_0005_out.pdbqt
 OpenBabel09232609193D

 50 52  0  0  1  0  0  0  0  0999 V2000
   30.4480   50.4990    7.0240 C   0  0  1  0  0  0  0  0  0  0  0  0
   31.5340   50.0100    7.6900 N   0  0  0  0  0  0  0  0  0  0  0  0
   32.1400   50.6350    8.2240 H   0  0  0  0  0  0  0  0  0  0  0  0
   31.7920   48.6910    7.6290 C   0  0  0  0  0  0  0  0  0  0  0  0
   32.7810   48.1770    8.2240 O   0  0  0  0  0  0  0  0  0  0  0  0
   30.9920   47.8230    6.9160 C   0  0  2  0  0  0  0  0  0  0  0  0
   29.9230   48.3220    6.2650 N   0  0  0  0  0  0  0  0  0  0  0  0
   29.3230   47.6900    5.7330 H   0  0  0  0  0  0  0  0  0  0  0  0
   29.6310   49.6370    6.3000 C   0  0  0  0  0  0  0  0  0  0  0  0
   28.6380   50.1180    5.6980 O   0  0  0  0  0  0  0  0  0  0  0  0
   30.2420   51.7860    7.1150 C   0  0  0  0  0  0  0  0  0  0  0  0
   30.4800   52.7920    6.1210 C   0  0  0  0  0  0  0  0  0  0  0  0
   29.6950   53.9310    5.9740 C   0  0  0  0  0  0  0  0  0  0  0  0
   30.2050   54.6330    4.9610 N   0  0  0  0  0  0  0  0  0  0  0  0
   31.2710   53.9660    4.4840 C   0  0  0  0  0  0  0  0  0  0  0  0
   29.8490   55.5220    4.6080 H   0  0  0  0  0  0  0  0  0  0  0  0
   31.4360   52.8350    5.2000 N   0  0  0  0  0  0  0  0  0  0  0  0
   32.1660   52.1370    5.0600 H   0  0  0  0  0  0  0  0  0  0  0  0
   28.5120   54.2860    6.7990 C   0  0  0  0  0  0  0  0  0  0  0  0
   28.9110   54.7870    8.1760 C   0  0  0  0  0  0  0  0  0  0  0  0
   27.6480   53.0500    7.0200 C   0  0  0  0  0  0  0  0  0  0  0  0
   27.6740   55.2960    6.0560 C   0  0  0  0  0  0  0  0  0  0  0  0
   31.2220   46.5190    6.8390 C   0  0  0  0  0  0  0  0  0  0  0  0
   30.7540   45.5640    7.8090 C   0  0  0  0  0  0  0  0  0  0  0  0
   29.5590   45.7770    8.4650 C   0  0  0  0  0  0  0  0  0  0  0  0
   29.1540   44.8320    9.3870 C   0  0  0  0  0  0  0  0  0  0  0  0
   27.9790   45.0060   10.0570 F   0  0  0  0  0  0  0  0  0  0  0  0
   29.9070   43.6940    9.6650 C   0  0  0  0  0  0  0  0  0  0  0  0
   31.1060   43.5030    8.9900 C   0  0  0  0  0  0  0  0  0  0  0  0
   31.5230   44.4370    8.0680 C   0  0  0  0  0  0  0  0  0  0  0  0
   32.6790   44.2470    7.4230 F   0  0  0  0  0  0  0  0  0  0  0  0
   29.5899   50.3815    6.3957 H   0  0  0  0  0  0  0  0  0  0  0  0
   31.8537   47.4637    7.4388 H   0  0  0  0  0  0  0  0  0  0  0  0
   29.2019   51.8776    7.3489 H   0  0  0  0  0  0  0  0  0  0  0  0
   31.0401   52.0297    7.7847 H   0  0  0  0  0  0  0  0  0  0  0  0
   32.1452   54.5768    4.5712 H   0  0  0  0  0  0  0  0  0  0  0  0
   29.5225   55.6592    8.0748 H   0  0  0  0  0  0  0  0  0  0  0  0
   29.4596   54.0242    8.6879 H   0  0  0  0  0  0  0  0  0  0  0  0
   28.0320   55.0306    8.7354 H   0  0  0  0  0  0  0  0  0  0  0  0
   27.3393   52.6568    6.0739 H   0  0  0  0  0  0  0  0  0  0  0  0
   26.7853   53.3159    7.5943 H   0  0  0  0  0  0  0  0  0  0  0  0
   28.2128   52.3095    7.5469 H   0  0  0  0  0  0  0  0  0  0  0  0
   27.4148   54.9058    5.0940 H   0  0  0  0  0  0  0  0  0  0  0  0
   28.2308   56.2017    5.9353 H   0  0  0  0  0  0  0  0  0  0  0  0
   26.7819   55.4971    6.6115 H   0  0  0  0  0  0  0  0  0  0  0  0
   32.2864   46.4123    6.8159 H   0  0  0  0  0  0  0  0  0  0  0  0
   30.6281   46.2557    5.9888 H   0  0  0  0  0  0  0  0  0  0  0  0
   28.9871   46.6143    8.2731 H   0  0  0  0  0  0  0  0  0  0  0  0
   29.5801   43.0048   10.3601 H   0  0  0  0  0  0  0  0  0  0  0  0
   31.6805   42.6666    9.1783 H   0  0  0  0  0  0  0  0  0  0  0  0
  1 11  1  0  0  0  0
  1  2  1  0  0  0  0
  1 32  1  6  0  0  0
  2  3  1  0  0  0  0
  4  2  1  0  0  0  0
  4  5  2  0  0  0  0
  6  4  1  0  0  0  0
  6 33  1  6  0  0  0
  7  9  1  0  0  0  0
  7  6  1  0  0  0  0
  8  7  1  0  0  0  0
  9  1  1  0  0  0  0
 10  9  2  0  0  0  0
 11 34  1  0  0  0  0
 11 35  1  0  0  0  0
 12 11  1  0  0  0  0
 13 12  2  0  0  0  0
 13 19  1  0  0  0  0
 14 13  1  0  0  0  0
 15 14  1  0  0  0  0
 15 17  1  0  0  0  0
 15 36  1  0  0  0  0
 16 14  1  0  0  0  0
 17 12  1  0  0  0  0
 18 17  1  0  0  0  0
 19 21  1  0  0  0  0
 19 20  1  0  0  0  0
 20 37  1  0  0  0  0
 20 38  1  0  0  0  0
 20 39  1  0  0  0  0
 21 40  1  0  0  0  0
 21 41  1  0  0  0  0
 21 42  1  0  0  0  0
 22 19  1  0  0  0  0
 22 43  1  0  0  0  0
 22 44  1  0  0  0  0
 22 45  1  0  0  0  0
 23  6  1  0  0  0  0
 23 24  1  0  0  0  0
 23 46  1  0  0  0  0
 23 47  1  0  0  0  0
 24 30  2  0  0  0  0
 24 25  1  0  0  0  0
 25 26  2  0  0  0  0
 25 48  1  0  0  0  0
 26 28  1  0  0  0  0
 26 27  1  0  0  0  0
 28 49  1  0  0  0  0
 29 28  2  0  0  0  0
 29 50  1  0  0  0  0
 30 29  1  0  0  0  0
 31 30  1  0  0  0  0
M  END
>  <REMARK>
 VINA RESULT:      -7.5      4.321      8.042
  5 active torsions:
  status: ('A' for Active; 'I' for Inactive)
    1  A    between atoms: C_2  and  C_5 
    2  A    between atoms: C_6  and  C_7 
    3  A    between atoms: C_7  and  CA_8 
    4  A    between atoms: CA_13  and  C_14 
    5  A    between atoms: C_14  and  C_15 

>  <TORSDO>
F 5

$$$$
resistance_project/docking/5319283d3047ac55/Q9UM73_WT/docked/molecule_0005_out.pdbqt
 OpenBabel09232609193D

 50 52  0  0  1  0  0  0  0  0999 V2000
   34.6620   47.8470    7.8350 C   0  0  1  0  0  0  0  0  0  0  0  0
   34.1810   47.7670    6.5600 N   0  0  0  0  0  0  0  0  0  0  0  0
   34.6430   48.2650    5.7980 H   0  0  0  0  0  0  0  0  0  0  0  0
   33.0850   47.0210    6.3270 C   0  0  0  0  0  0  0  0  0  0  0  0
   32.5910   46.9060    5.1700 O   0  0  0  0  0  0  0  0  0  0  0  0
   32.4400   46.3370    7.3360 C   0  0  1  0  0  0  0  0  0  0  0  0
   32.9280   46.4250    8.5880 N   0  0  0  0  0  0  0  0  0  0  0  0
   32.4600   45.9240    9.3440 H   0  0  0  0  0  0  0  0  0  0  0  0
   34.0230   47.1630    8.8640 C   0  0  0  0  0  0  0  0  0  0  0  0
   34.4910   47.2560   10.0260 O   0  0  0  0  0  0  0  0  0  0  0  0
   35.7270   48.5840    8.0080 C   0  0  0  0  0  0  0  0  0  0  0  0
   37.0920   48.1570    8.1120 C   0  0  0  0  0  0  0  0  0  0  0  0
   38.1670   48.8810    7.6090 C   0  0  0  0  0  0  0  0  0  0  0  0
   39.2730   48.1880    7.8840 N   0  0  0  0  0  0  0  0  0  0  0  0
   38.9130   47.0670    8.5360 C   0  0  0  0  0  0  0  0  0  0  0  0
   40.2260   48.4600    7.6420 H   0  0  0  0  0  0  0  0  0  0  0  0
   37.5720   47.0530    8.6730 N   0  0  0  0  0  0  0  0  0  0  0  0
   37.0230   46.3240    9.1280 H   0  0  0  0  0  0  0  0  0  0  0  0
   38.0830   50.1840    6.9000 C   0  0  0  0  0  0  0  0  0  0  0  0
   37.3750   50.0570    5.5630 C   0  0  0  0  0  0  0  0  0  0  0  0
   39.4860   50.7000    6.6010 C   0  0  0  0  0  0  0  0  0  0  0  0
   37.4130   51.1940    7.7970 C   0  0  0  0  0  0  0  0  0  0  0  0
   31.3590   45.5940    7.1350 C   0  0  0  0  0  0  0  0  0  0  0  0
   30.1760   45.6630    7.9510 C   0  0  0  0  0  0  0  0  0  0  0  0
   29.9500   44.7070    8.9200 C   0  0  0  0  0  0  0  0  0  0  0  0
   28.8000   44.8180    9.6770 C   0  0  0  0  0  0  0  0  0  0  0  0
   28.5390   43.8920   10.6440 F   0  0  0  0  0  0  0  0  0  0  0  0
   27.8840   45.8500    9.4910 C   0  0  0  0  0  0  0  0  0  0  0  0
   28.1360   46.8000    8.5090 C   0  0  0  0  0  0  0  0  0  0  0  0
   29.2780   46.7030    7.7460 C   0  0  0  0  0  0  0  0  0  0  0  0
   29.5140   47.6210    6.8030 F   0  0  0  0  0  0  0  0  0  0  0  0
   34.6058   47.6158    8.8782 H   0  0  0  0  0  0  0  0  0  0  0  0
   32.1031   46.3061    6.3209 H   0  0  0  0  0  0  0  0  0  0  0  0
   35.5411   49.1184    8.9162 H   0  0  0  0  0  0  0  0  0  0  0  0
   35.7724   49.0303    7.0366 H   0  0  0  0  0  0  0  0  0  0  0  0
   39.3729   47.0499    9.5020 H   0  0  0  0  0  0  0  0  0  0  0  0
   37.8807   49.3329    4.9590 H   0  0  0  0  0  0  0  0  0  0  0  0
   37.3812   51.0039    5.0648 H   0  0  0  0  0  0  0  0  0  0  0  0
   36.3642   49.7447    5.7229 H   0  0  0  0  0  0  0  0  0  0  0  0
   39.9932   50.0057    5.9641 H   0  0  0  0  0  0  0  0  0  0  0  0
   40.0294   50.8068    7.5165 H   0  0  0  0  0  0  0  0  0  0  0  0
   39.4202   51.6497    6.1125 H   0  0  0  0  0  0  0  0  0  0  0  0
   37.3501   52.1345    7.2906 H   0  0  0  0  0  0  0  0  0  0  0  0
   37.9850   51.3094    8.6939 H   0  0  0  0  0  0  0  0  0  0  0  0
   36.4284   50.8549    8.0430 H   0  0  0  0  0  0  0  0  0  0  0  0
   31.6904   44.5780    7.1887 H   0  0  0  0  0  0  0  0  0  0  0  0
   30.9974   46.0029    6.2147 H   0  0  0  0  0  0  0  0  0  0  0  0
   30.6176   43.9352    9.0739 H   0  0  0  0  0  0  0  0  0  0  0  0
   27.0332   45.9082   10.0721 H   0  0  0  0  0  0  0  0  0  0  0  0
   27.4712   47.5737    8.3524 H   0  0  0  0  0  0  0  0  0  0  0  0
  1 11  1  0  0  0  0
  1  9  1  0  0  0  0
  1 32  1  1  0  0  0
  2  1  1  0  0  0  0
  3  2  1  0  0  0  0
  4  2  1  0  0  0  0
  4  6  1  0  0  0  0
  5  4  2  0  0  0  0
  6  7  1  0  0  0  0
  6 33  1  6  0  0  0
  7  9  1  0  0  0  0
  7  8  1  0  0  0  0
  9 10  2  0  0  0  0
 11 12  1  0  0  0  0
 11 34  1  0  0  0  0
 11 35  1  0  0  0  0
 12 17  1  0  0  0  0
 13 14  1  0  0  0  0
 13 12  2  0  0  0  0
 14 15  1  0  0  0  0
 15 17  1  0  0  0  0
 15 36  1  0  0  0  0
 16 14  1  0  0  0  0
 17 18  1  0  0  0  0
 19 13  1  0  0  0  0
 19 22  1  0  0  0  0
 20 19  1  0  0  0  0
 20 37  1  0  0  0  0
 20 38  1  0  0  0  0
 20 39  1  0  0  0  0
 21 19  1  0  0  0  0
 21 40  1  0  0  0  0
 21 41  1  0  0  0  0
 21 42  1  0  0  0  0
 22 43  1  0  0  0  0
 22 44  1  0  0  0  0
 22 45  1  0  0  0  0
 23  6  1  0  0  0  0
 23 24  1  0  0  0  0
 23 46  1  0  0  0  0
 23 47  1  0  0  0  0
 24 25  1  0  0  0  0
 25 26  2  0  0  0  0
 25 48  1  0  0  0  0
 26 27  1  0  0  0  0
 28 26  1  0  0  0  0
 28 49  1  0  0  0  0
 29 28  2  0  0  0  0
 29 50  1  0  0  0  0
 30 24  2  0  0  0  0
 30 29  1  0  0  0  0
 31 30  1  0  0  0  0
M  END
>  <REMARK>
 VINA RESULT:      -7.3      4.167      6.653
  5 active torsions:
  status: ('A' for Active; 'I' for Inactive)
    1  A    between atoms: C_2  and  C_5 
    2  A    between atoms: C_6  and  C_7 
    3  A    between atoms: C_7  and  CA_8 
    4  A    between atoms: CA_13  and  C_14 
    5  A    between atoms: C_14  and  C_15 

>  <TORSDO>
F 5

$$$$
resistance_project/docking/5319283d3047ac55/Q9UM73_WT/docked/molecule_0005_out.pdbqt
 OpenBabel09232609193D

 50 52  0  0  1  0  0  0  0  0999 V2000
   29.7030   48.2090    7.0420 C   0  0  1  0  0  0  0  0  0  0  0  0
   28.8010   47.8760    8.0100 N   0  0  0  0  0  0  0  0  0  0  0  0
   27.9560   48.4310    8.1460 H   0  0  0  0  0  0  0  0  0  0  0  0
   29.0480   46.8030    8.7850 C   0  0  0  0  0  0  0  0  0  0  0  0
   28.2520   46.4430    9.6980 O   0  0  0  0  0  0  0  0  0  0  0  0
   30.1810   46.0340    8.6250 C   0  0  1  0  0  0  0  0  0  0  0  0
   31.0610   46.3750    7.6640 N   0  0  0  0  0  0  0  0  0  0  0  0
   31.9040   45.8140    7.5360 H   0  0  0  0  0  0  0  0  0  0  0  0
   30.8510   47.4430    6.8680 C   0  0  0  0  0  0  0  0  0  0  0  0
   31.6620   47.7750    5.9680 O   0  0  0  0  0  0  0  0  0  0  0  0
   29.4170   49.2590    6.3180 C   0  0  0  0  0  0  0  0  0  0  0  0
   29.5780   50.6410    6.6630 C   0  0  0  0  0  0  0  0  0  0  0  0
   28.6010   51.6080    6.4480 C   0  0  0  0  0  0  0  0  0  0  0  0
   29.0910   52.7680    6.8870 N   0  0  0  0  0  0  0  0  0  0  0  0
   30.3300   52.5470    7.3610 C   0  0  0  0  0  0  0  0  0  0  0  0
   28.6100   53.6680    6.8660 H   0  0  0  0  0  0  0  0  0  0  0  0
   30.6250   51.2380    7.2210 N   0  0  0  0  0  0  0  0  0  0  0  0
   31.4960   50.7860    7.4960 H   0  0  0  0  0  0  0  0  0  0  0  0
   27.2640   51.3750    5.8420 C   0  0  0  0  0  0  0  0  0  0  0  0
   26.4240   50.4210    6.6720 C   0  0  0  0  0  0  0  0  0  0  0  0
   27.4250   50.7320    4.4700 C   0  0  0  0  0  0  0  0  0  0  0  0
   26.5740   52.7010    5.6410 C   0  0  0  0  0  0  0  0  0  0  0  0
   30.4500   44.9710    9.3730 C   0  0  0  0  0  0  0  0  0  0  0  0
   31.4080   43.9590    9.0130 C   0  0  0  0  0  0  0  0  0  0  0  0
   31.0280   42.9050    8.2090 C   0  0  0  0  0  0  0  0  0  0  0  0
   31.9840   41.9600    7.8920 C   0  0  0  0  0  0  0  0  0  0  0  0
   31.6480   40.9020    7.1000 F   0  0  0  0  0  0  0  0  0  0  0  0
   33.2950   42.0440    8.3550 C   0  0  0  0  0  0  0  0  0  0  0  0
   33.6510   43.1170    9.1620 C   0  0  0  0  0  0  0  0  0  0  0  0
   32.7090   44.0670    9.4870 C   0  0  0  0  0  0  0  0  0  0  0  0
   33.0600   45.0960   10.2660 F   0  0  0  0  0  0  0  0  0  0  0  0
   30.6286   48.0638    6.5253 H   0  0  0  0  0  0  0  0  0  0  0  0
   29.4374   45.8139    9.3623 H   0  0  0  0  0  0  0  0  0  0  0  0
   29.9905   49.1350    5.4233 H   0  0  0  0  0  0  0  0  0  0  0  0
   28.3497   49.2038    6.3692 H   0  0  0  0  0  0  0  0  0  0  0  0
   30.3718   52.8158    8.3958 H   0  0  0  0  0  0  0  0  0  0  0  0
   25.4731   50.2815    6.2017 H   0  0  0  0  0  0  0  0  0  0  0  0
   26.2814   50.8302    7.6503 H   0  0  0  0  0  0  0  0  0  0  0  0
   26.9254   49.4789    6.7490 H   0  0  0  0  0  0  0  0  0  0  0  0
   28.0134   51.3698    3.8440 H   0  0  0  0  0  0  0  0  0  0  0  0
   26.4612   50.5888    4.0279 H   0  0  0  0  0  0  0  0  0  0  0  0
   27.9135   49.7858    4.5747 H   0  0  0  0  0  0  0  0  0  0  0  0
   27.1973   53.3419    5.0531 H   0  0  0  0  0  0  0  0  0  0  0  0
   26.3912   53.1557    6.5922 H   0  0  0  0  0  0  0  0  0  0  0  0
   25.6440   52.5460    5.1351 H   0  0  0  0  0  0  0  0  0  0  0  0
   29.5186   44.4589    9.4962 H   0  0  0  0  0  0  0  0  0  0  0  0
   30.9378   45.4269   10.2091 H   0  0  0  0  0  0  0  0  0  0  0  0
   30.0616   42.8250    7.8560 H   0  0  0  0  0  0  0  0  0  0  0  0
   33.9887   41.3226    8.1032 H   0  0  0  0  0  0  0  0  0  0  0  0
   34.6166   43.2017    9.5161 H   0  0  0  0  0  0  0  0  0  0  0  0
  1  2  1  0  0  0  0
  1 32  1  1  0  0  0
  2  3  1  0  0  0  0
  2  4  1  0  0  0  0
  4  5  2  0  0  0  0
  6  4  1  0  0  0  0
  6 23  1  0  0  0  0
  6 33  1  6  0  0  0
  7  6  1  0  0  0  0
  8  7  1  0  0  0  0
  9  1  1  0  0  0  0
  9  7  1  0  0  0  0
 10  9  2  0  0  0  0
 11 12  1  0  0  0  0
 11  1  1  0  0  0  0
 11 34  1  0  0  0  0
 11 35  1  0  0  0  0
 12 17  1  0  0  0  0
 13 12  2  0  0  0  0
 13 14  1  0  0  0  0
 14 15  1  0  0  0  0
 15 36  1  0  0  0  0
 16 14  1  0  0  0  0
 17 15  1  0  0  0  0
 17 18  1  0  0  0  0
 19 13  1  0  0  0  0
 19 20  1  0  0  0  0
 20 37  1  0  0  0  0
 20 38  1  0  0  0  0
 20 39  1  0  0  0  0
 21 19  1  0  0  0  0
 21 40  1  0  0  0  0
 21 41  1  0  0  0  0
 21 42  1  0  0  0  0
 22 19  1  0  0  0  0
 22 43  1  0  0  0  0
 22 44  1  0  0  0  0
 22 45  1  0  0  0  0
 23 46  1  0  0  0  0
 23 47  1  0  0  0  0
 24 23  1  0  0  0  0
 24 30  2  0  0  0  0
 25 24  1  0  0  0  0
 25 48  1  0  0  0  0
 26 25  2  0  0  0  0
 26 28  1  0  0  0  0
 27 26  1  0  0  0  0
 28 29  2  0  0  0  0
 28 49  1  0  0  0  0
 29 30  1  0  0  0  0
 29 50  1  0  0  0  0
 30 31  1  0  0  0  0
M  END
>  <REMARK>
 VINA RESULT:      -7.3      3.636      8.076
  5 active torsions:
  status: ('A' for Active; 'I' for Inactive)
    1  A    between atoms: C_2  and  C_5 
    2  A    between atoms: C_6  and  C_7 
    3  A    between atoms: C_7  and  CA_8 
    4  A    between atoms: CA_13  and  C_14 
    5  A    between atoms: C_14  and  C_15 

>  <TORSDO>
F 5

$$$$
resistance_project/docking/5319283d3047ac55/Q9UM73_WT/docked/molecule_0005_out.pdbqt
 OpenBabel09232609193D

 50 52  0  0  1  0  0  0  0  0999 V2000
   34.8530   47.7420    7.8590 C   0  0  1  0  0  0  0  0  0  0  0  0
   34.5930   47.0090    8.9800 N   0  0  0  0  0  0  0  0  0  0  0  0
   35.1700   47.1140    9.8150 H   0  0  0  0  0  0  0  0  0  0  0  0
   33.5620   46.1430    8.9620 C   0  0  0  0  0  0  0  0  0  0  0  0
   33.2690   45.4350    9.9680 O   0  0  0  0  0  0  0  0  0  0  0  0
   32.7650   45.9790    7.8490 C   0  0  2  0  0  0  0  0  0  0  0  0
   33.0350   46.7120    6.7510 N   0  0  0  0  0  0  0  0  0  0  0  0
   32.4530   46.6000    5.9200 H   0  0  0  0  0  0  0  0  0  0  0  0
   34.0580   47.5890    6.7270 C   0  0  0  0  0  0  0  0  0  0  0  0
   34.3240   48.2790    5.7110 O   0  0  0  0  0  0  0  0  0  0  0  0
   35.8640   48.5670    7.9260 C   0  0  0  0  0  0  0  0  0  0  0  0
   37.2580   48.2510    8.0410 C   0  0  0  0  0  0  0  0  0  0  0  0
   38.2760   49.0790    7.5810 C   0  0  0  0  0  0  0  0  0  0  0  0
   39.4320   48.4710    7.8530 N   0  0  0  0  0  0  0  0  0  0  0  0
   39.1570   47.3030    8.4610 C   0  0  0  0  0  0  0  0  0  0  0  0
   40.3630   48.8290    7.6370 H   0  0  0  0  0  0  0  0  0  0  0  0
   37.8200   47.1730    8.5740 N   0  0  0  0  0  0  0  0  0  0  0  0
   37.3270   46.3860    8.9950 H   0  0  0  0  0  0  0  0  0  0  0  0
   38.0950   50.3940    6.9130 C   0  0  0  0  0  0  0  0  0  0  0  0
   37.3220   50.2670    5.6120 C   0  0  0  0  0  0  0  0  0  0  0  0
   39.4550   50.9820    6.5550 C   0  0  0  0  0  0  0  0  0  0  0  0
   37.4280   51.3480    7.8710 C   0  0  0  0  0  0  0  0  0  0  0  0
   31.7430   45.1340    7.8040 C   0  0  0  0  0  0  0  0  0  0  0  0
   30.4220   45.4490    8.2810 C   0  0  0  0  0  0  0  0  0  0  0  0
   29.7310   46.5150    7.7440 C   0  0  0  0  0  0  0  0  0  0  0  0
   28.4680   46.7760    8.2350 C   0  0  0  0  0  0  0  0  0  0  0  0
   27.7520   47.8220    7.7310 F   0  0  0  0  0  0  0  0  0  0  0  0
   27.8860   46.0050    9.2390 C   0  0  0  0  0  0  0  0  0  0  0  0
   28.6030   44.9370    9.7620 C   0  0  0  0  0  0  0  0  0  0  0  0
   29.8640   44.6640    9.2820 C   0  0  0  0  0  0  0  0  0  0  0  0
   30.5490   43.6340    9.7910 F   0  0  0  0  0  0  0  0  0  0  0  0
   34.6490   48.0111    6.8437 H   0  0  0  0  0  0  0  0  0  0  0  0
   32.5884   45.4174    8.7425 H   0  0  0  0  0  0  0  0  0  0  0  0
   35.6552   49.1819    8.7764 H   0  0  0  0  0  0  0  0  0  0  0  0
   35.8600   48.9082    6.9119 H   0  0  0  0  0  0  0  0  0  0  0  0
   39.6024   47.2910    9.4338 H   0  0  0  0  0  0  0  0  0  0  0  0
   37.8272   49.5832    4.9623 H   0  0  0  0  0  0  0  0  0  0  0  0
   37.2573   51.2254    5.1405 H   0  0  0  0  0  0  0  0  0  0  0  0
   36.3368   49.9029    5.8165 H   0  0  0  0  0  0  0  0  0  0  0  0
   39.9581   50.3281    5.8737 H   0  0  0  0  0  0  0  0  0  0  0  0
   40.0414   51.0913    7.4433 H   0  0  0  0  0  0  0  0  0  0  0  0
   39.3202   51.9394    6.0966 H   0  0  0  0  0  0  0  0  0  0  0  0
   37.2952   52.2970    7.3948 H   0  0  0  0  0  0  0  0  0  0  0  0
   38.0409   51.4676    8.7399 H   0  0  0  0  0  0  0  0  0  0  0  0
   36.4745   50.9565    8.1582 H   0  0  0  0  0  0  0  0  0  0  0  0
   32.0538   44.2718    8.3561 H   0  0  0  0  0  0  0  0  0  0  0  0
   31.5719   45.0743    6.7495 H   0  0  0  0  0  0  0  0  0  0  0  0
   30.1447   47.0981    6.9998 H   0  0  0  0  0  0  0  0  0  0  0  0
   26.9396   46.2236    9.5875 H   0  0  0  0  0  0  0  0  0  0  0  0
   28.1929   44.3513   10.5062 H   0  0  0  0  0  0  0  0  0  0  0  0
  1 11  1  0  0  0  0
  1  2  1  0  0  0  0
  1 32  1  6  0  0  0
  2  3  1  0  0  0  0
  4  2  1  0  0  0  0
  4  5  2  0  0  0  0
  6  4  1  0  0  0  0
  6 33  1  6  0  0  0
  7  6  1  0  0  0  0
  8  7  1  0  0  0  0
  9  7  1  0  0  0  0
  9  1  1  0  0  0  0
 10  9  2  0  0  0  0
 11 12  1  0  0  0  0
 11 34  1  0  0  0  0
 11 35  1  0  0  0  0
 12 17  1  0  0  0  0
 13 14  1  0  0  0  0
 13 12  2  0  0  0  0
 14 15  1  0  0  0  0
 15 17  1  0  0  0  0
 15 36  1  0  0  0  0
 16 14  1  0  0  0  0
 17 18  1  0  0  0  0
 19 13  1  0  0  0  0
 19 22  1  0  0  0  0
 20 19  1  0  0  0  0
 20 37  1  0  0  0  0
 20 38  1  0  0  0  0
 20 39  1  0  0  0  0
 21 19  1  0  0  0  0
 21 40  1  0  0  0  0
 21 41  1  0  0  0  0
 21 42  1  0  0  0  0
 22 43  1  0  0  0  0
 22 44  1  0  0  0  0
 22 45  1  0  0  0  0
 23  6  1  0  0  0  0
 23 24  1  0  0  0  0
 23 46  1  0  0  0  0
 23 47  1  0  0  0  0
 24 30  2  0  0  0  0
 25 26  2  0  0  0  0
 25 24  1  0  0  0  0
 25 48  1  0  0  0  0
 26 28  1  0  0  0  0
 27 26  1  0  0  0  0
 28 29  2  0  0  0  0
 28 49  1  0  0  0  0
 29 50  1  0  0  0  0
 30 29  1  0  0  0  0
 30 31  1  0  0  0  0
M  END
>  <REMARK>
 VINA RESULT:      -7.2      4.300      7.130
  5 active torsions:
  status: ('A' for Active; 'I' for Inactive)
    1  A    between atoms: C_2  and  C_5 
    2  A    between atoms: C_6  and  C_7 
    3  A    between atoms: C_7  and  CA_8 
    4  A    between atoms: CA_13  and  C_14 
    5  A    between atoms: C_14  and  C_15 

>  <TORSDO>
F 5

$$$$
