resistance_project/docking/5319283d3047ac55/Q9UM73_WT/docked/molecule_0009_out.pdbqt
 OpenBabel09232609193D

 74 78  0  0  1  0  0  0  0  0999 V2000
   34.3480   46.1810    7.8050 C   0  0  0  0  0  0  0  0  0  0  0  0
   33.5940   46.7190    6.9100 N   0  0  0  0  0  0  0  0  0  0  0  0
   34.0180   46.9270    6.0050 H   0  0  0  0  0  0  0  0  0  0  0  0
   33.6580   45.6810    9.0330 C   0  0  2  0  0  0  0  0  0  0  0  0
   34.2990   46.2090   10.2710 C   0  0  0  0  0  0  0  0  0  0  0  0
   34.8160   45.1010   11.0160 N   0  0  0  0  0  0  0  0  0  0  0  0
   34.3870   47.4160   10.6280 O   0  0  0  0  0  0  0  0  0  0  0  0
   34.5300   43.8960   10.3210 C   0  0  0  0  0  0  0  0  0  0  0  0
   35.3120   45.1660   11.9050 H   0  0  0  0  0  0  0  0  0  0  0  0
   33.8470   44.1940    9.1520 C   0  0  0  0  0  0  0  0  0  0  0  0
   34.8430   42.5980   10.6740 C   0  0  0  0  0  0  0  0  0  0  0  0
   33.5000   43.1110    8.3670 C   0  0  0  0  0  0  0  0  0  0  0  0
   33.8080   41.8080    8.7120 C   0  0  0  0  0  0  0  0  0  0  0  0
   34.4890   41.5270    9.8790 C   0  0  0  0  0  0  0  0  0  0  0  0
   34.8010   40.1490   10.2160 C   0  0  0  0  0  0  0  0  0  0  0  0
   33.8770   39.3180   10.3320 O   0  0  0  0  0  0  0  0  0  0  0  0
   36.1520   39.8340   10.3950 O   0  0  0  0  0  0  0  0  0  0  0  0
   36.5120   38.9750   11.4780 C   0  0  0  0  0  0  0  0  0  0  0  0
   35.7940   46.0520    7.6820 C   0  0  0  0  0  0  0  0  0  0  0  0
   36.6300   47.0910    8.0440 C   0  0  0  0  0  0  0  0  0  0  0  0
   37.9880   46.9540    7.9170 C   0  0  0  0  0  0  0  0  0  0  0  0
   38.5330   45.7990    7.4370 C   0  0  0  0  0  0  0  0  0  0  0  0
   37.6950   44.7780    7.0820 C   0  0  0  0  0  0  0  0  0  0  0  0
   36.3270   44.8790    7.1950 C   0  0  0  0  0  0  0  0  0  0  0  0
   32.2350   47.0440    7.0780 C   0  0  0  0  0  0  0  0  0  0  0  0
   31.2190   46.2850    6.4930 C   0  0  0  0  0  0  0  0  0  0  0  0
   29.9160   46.6480    6.6990 C   0  0  0  0  0  0  0  0  0  0  0  0
   29.5630   47.7470    7.4710 C   0  0  0  0  0  0  0  0  0  0  0  0
   30.6020   48.4600    8.0240 C   0  0  0  0  0  0  0  0  0  0  0  0
   31.9380   48.1510    7.8570 C   0  0  0  0  0  0  0  0  0  0  0  0
   28.1860   48.0980    7.6900 N   0  0  0  0  0  0  0  0  0  0  0  0
   27.4110   47.1830    8.4980 C   0  0  0  0  0  0  0  0  0  0  0  0
   27.6830   49.2830    7.1100 C   0  0  0  0  0  0  0  0  0  0  0  0
   26.5020   49.6210    7.4740 O   0  0  0  0  0  0  0  0  0  0  0  0
   28.3590   50.1480    6.1570 C   0  0  0  0  0  0  0  0  0  0  0  0
   28.5560   51.4980    6.5050 N   0  0  0  0  0  0  0  0  0  0  0  0
   29.8760   51.9010    6.8820 C   0  0  0  0  0  0  0  0  0  0  0  0
   30.0980   53.2910    6.2800 C   0  0  0  0  0  0  0  0  0  0  0  0
   29.1700   54.2480    6.8790 N   0  0  0  0  0  0  0  0  0  0  0  0
   29.4390   54.4110    8.2960 C   0  0  0  0  0  0  0  0  0  0  0  0
   27.8090   53.7600    6.7210 C   0  0  0  0  0  0  0  0  0  0  0  0
   27.7810   52.4950    5.8730 C   0  0  0  0  0  0  0  0  0  0  0  0
   32.6353   45.9828    8.9445 H   0  0  0  0  0  0  0  0  0  0  0  0
   35.3540   42.4248   11.5537 H   0  0  0  0  0  0  0  0  0  0  0  0
   32.9896   43.2819    7.4865 H   0  0  0  0  0  0  0  0  0  0  0  0
   33.5250   41.0356    8.0888 H   0  0  0  0  0  0  0  0  0  0  0  0
   37.5722   38.8305   11.4814 H   0  0  0  0  0  0  0  0  0  0  0  0
   36.0236   38.0302   11.3614 H   0  0  0  0  0  0  0  0  0  0  0  0
   36.2099   39.4209   12.4025 H   0  0  0  0  0  0  0  0  0  0  0  0
   36.2320   47.9700    8.4099 H   0  0  0  0  0  0  0  0  0  0  0  0
   38.6062   47.7347    8.1880 H   0  0  0  0  0  0  0  0  0  0  0  0
   39.5558   45.6979    7.3438 H   0  0  0  0  0  0  0  0  0  0  0  0
   38.1020   43.9026    6.7172 H   0  0  0  0  0  0  0  0  0  0  0  0
   35.7151   44.0944    6.9213 H   0  0  0  0  0  0  0  0  0  0  0  0
   31.4478   45.4622    5.9137 H   0  0  0  0  0  0  0  0  0  0  0  0
   29.1683   46.0845    6.2649 H   0  0  0  0  0  0  0  0  0  0  0  0
   30.3671   49.2814    8.6029 H   0  0  0  0  0  0  0  0  0  0  0  0
   32.6814   48.7189    8.2927 H   0  0  0  0  0  0  0  0  0  0  0  0
   26.4095   47.5484    8.5895 H   0  0  0  0  0  0  0  0  0  0  0  0
   27.8520   47.1039    9.4697 H   0  0  0  0  0  0  0  0  0  0  0  0
   27.3980   46.2195    8.0327 H   0  0  0  0  0  0  0  0  0  0  0  0
   29.3241   49.7240    5.9732 H   0  0  0  0  0  0  0  0  0  0  0  0
   27.6965   50.1853    5.3176 H   0  0  0  0  0  0  0  0  0  0  0  0
   29.9589   51.9429    7.9480 H   0  0  0  0  0  0  0  0  0  0  0  0
   30.6077   51.2056    6.5272 H   0  0  0  0  0  0  0  0  0  0  0  0
   31.1030   53.6041    6.4719 H   0  0  0  0  0  0  0  0  0  0  0  0
   29.9269   53.2486    5.2246 H   0  0  0  0  0  0  0  0  0  0  0  0
   30.4380   54.7701    8.4304 H   0  0  0  0  0  0  0  0  0  0  0  0
   29.3292   53.4686    8.7906 H   0  0  0  0  0  0  0  0  0  0  0  0
   28.7482   55.1145    8.7116 H   0  0  0  0  0  0  0  0  0  0  0  0
   27.3998   53.5443    7.6858 H   0  0  0  0  0  0  0  0  0  0  0  0
   27.2300   54.5140    6.2300 H   0  0  0  0  0  0  0  0  0  0  0  0
   26.7719   52.1539    5.7716 H   0  0  0  0  0  0  0  0  0  0  0  0
   28.1819   52.7023    4.9029 H   0  0  0  0  0  0  0  0  0  0  0  0
  1  4  1  0  0  0  0
  2 25  1  0  0  0  0
  2  1  2  0  0  0  0
  3  2  1  0  0  0  0
  4 10  1  0  0  0  0
  4  5  1  0  0  0  0
  4 43  1  6  0  0  0
  5  7  2  0  0  0  0
  5  6  1  0  0  0  0
  6  9  1  0  0  0  0
  8 11  1  0  0  0  0
  8  6  1  0  0  0  0
 10  8  2  0  0  0  0
 11 44  1  0  0  0  0
 12 13  2  0  0  0  0
 12 10  1  0  0  0  0
 12 45  1  0  0  0  0
 13 14  1  0  0  0  0
 13 46  1  0  0  0  0
 14 15  1  0  0  0  0
 14 11  2  0  0  0  0
 15 16  2  0  0  0  0
 15 17  1  0  0  0  0
 17 18  1  0  0  0  0
 18 47  1  0  0  0  0
 18 48  1  0  0  0  0
 18 49  1  0  0  0  0
 19  1  1  0  0  0  0
 19 20  2  0  0  0  0
 20 50  1  0  0  0  0
 21 20  1  0  0  0  0
 21 51  1  0  0  0  0
 22 21  2  0  0  0  0
 22 52  1  0  0  0  0
 23 24  2  0  0  0  0
 23 22  1  0  0  0  0
 23 53  1  0  0  0  0
 24 19  1  0  0  0  0
 24 54  1  0  0  0  0
 25 30  2  0  0  0  0
 26 27  2  0  0  0  0
 26 25  1  0  0  0  0
 26 55  1  0  0  0  0
 27 28  1  0  0  0  0
 27 56  1  0  0  0  0
 28 31  1  0  0  0  0
 28 29  2  0  0  0  0
 29 57  1  0  0  0  0
 30 29  1  0  0  0  0
 30 58  1  0  0  0  0
 31 32  1  0  0  0  0
 32 59  1  0  0  0  0
 32 60  1  0  0  0  0
 32 61  1  0  0  0  0
 33 34  2  0  0  0  0
 33 31  1  0  0  0  0
 35 36  1  0  0  0  0
 35 33  1  0  0  0  0
 35 62  1  0  0  0  0
 35 63  1  0  0  0  0
 36 37  1  0  0  0  0
 37 64  1  0  0  0  0
 37 65  1  0  0  0  0
 38 39  1  0  0  0  0
 38 37  1  0  0  0  0
 38 66  1  0  0  0  0
 38 67  1  0  0  0  0
 39 40  1  0  0  0  0
 40 68  1  0  0  0  0
 40 69  1  0  0  0  0
 40 70  1  0  0  0  0
 41 39  1  0  0  0  0
 41 71  1  0  0  0  0
 41 72  1  0  0  0  0
 42 36  1  0  0  0  0
 42 41  1  0  0  0  0
 42 73  1  0  0  0  0
 42 74  1  0  0  0  0
M  END
>  <MODEL>
1

>  <REMARK>
 VINA RESULT:      -7.7      0.000      0.000
  8 active torsions:
  status: ('A' for Active; 'I' for Inactive)
    1  A    between atoms: O_2  and  C_3 
    2  A    between atoms: C_3  and  C_5 
    3  A    between atoms: C_15  and  C_16 
    4  A    between atoms: C_16  and  C_37 
    5  A    between atoms: N_17  and  C_19 
    6  A    between atoms: C_22  and  N_23 
       I    between atoms: N_23  and  C_25 
    7  A    between atoms: C_25  and  C_27 
    8  A    between atoms: C_27  and  N_28 

>  <TORSDO>
F 8

$$$$
resistance_project/docking/5319283d3047ac55/Q9UM73_WT/docked/molecule_0009_out.pdbqt
 OpenBabel09232609193D

 74 78  0  0  1  0  0  0  0  0999 V2000
   33.5240   48.5200    5.6710 C   0  0  0  0  0  0  0  0  0  0  0  0
   32.6300   49.1950    5.0360 N   0  0  0  0  0  0  0  0  0  0  0  0
   32.4640   48.9510    4.0600 H   0  0  0  0  0  0  0  0  0  0  0  0
   33.5900   48.7400    7.1480 C   0  0  2  0  0  0  0  0  0  0  0  0
   34.9850   49.0260    7.5930 C   0  0  0  0  0  0  0  0  0  0  0  0
   35.3940   47.9820    8.4830 N   0  0  0  0  0  0  0  0  0  0  0  0
   35.7030   50.0080    7.2620 O   0  0  0  0  0  0  0  0  0  0  0  0
   34.3320   47.0520    8.6320 C   0  0  0  0  0  0  0  0  0  0  0  0
   36.3050   47.9160    8.9370 H   0  0  0  0  0  0  0  0  0  0  0  0
   33.2520   47.4640    7.8670 C   0  0  0  0  0  0  0  0  0  0  0  0
   34.2900   45.8990    9.3930 C   0  0  0  0  0  0  0  0  0  0  0  0
   32.1360   46.6490    7.9140 C   0  0  0  0  0  0  0  0  0  0  0  0
   32.0860   45.4940    8.6730 C   0  0  0  0  0  0  0  0  0  0  0  0
   33.1690   45.0960    9.4300 C   0  0  0  0  0  0  0  0  0  0  0  0
   33.0880   43.8770   10.2160 C   0  0  0  0  0  0  0  0  0  0  0  0
   31.9830   43.3240   10.3830 O   0  0  0  0  0  0  0  0  0  0  0  0
   34.2860   43.3910   10.7500 O   0  0  0  0  0  0  0  0  0  0  0  0
   34.8940   42.2550   10.1340 C   0  0  0  0  0  0  0  0  0  0  0  0
   34.4480   47.5910    5.0330 C   0  0  0  0  0  0  0  0  0  0  0  0
   34.2770   46.2260    5.1580 C   0  0  0  0  0  0  0  0  0  0  0  0
   35.1580   45.3660    4.5550 C   0  0  0  0  0  0  0  0  0  0  0  0
   36.2110   45.8400    3.8260 C   0  0  0  0  0  0  0  0  0  0  0  0
   36.3690   47.1940    3.7110 C   0  0  0  0  0  0  0  0  0  0  0  0
   35.5050   48.0870    4.3020 C   0  0  0  0  0  0  0  0  0  0  0  0
   31.8630   50.2430    5.5790 C   0  0  0  0  0  0  0  0  0  0  0  0
   30.7460   49.9990    6.3810 C   0  0  0  0  0  0  0  0  0  0  0  0
   30.0460   51.0600    6.8860 C   0  0  0  0  0  0  0  0  0  0  0  0
   30.4030   52.3780    6.6300 C   0  0  0  0  0  0  0  0  0  0  0  0
   31.5110   52.5630    5.8340 C   0  0  0  0  0  0  0  0  0  0  0  0
   32.2630   51.5380    5.2920 C   0  0  0  0  0  0  0  0  0  0  0  0
   29.6630   53.4770    7.1870 N   0  0  0  0  0  0  0  0  0  0  0  0
   29.9820   53.8410    8.5500 C   0  0  0  0  0  0  0  0  0  0  0  0
   28.6880   54.1160    6.3910 C   0  0  0  0  0  0  0  0  0  0  0  0
   28.1820   55.1850    6.8850 O   0  0  0  0  0  0  0  0  0  0  0  0
   28.2060   53.6930    5.0860 C   0  0  0  0  0  0  0  0  0  0  0  0
   27.2260   52.6840    5.0320 N   0  0  0  0  0  0  0  0  0  0  0  0
   27.4940   51.5410    4.2160 C   0  0  0  0  0  0  0  0  0  0  0  0
   26.9600   50.3240    4.9760 C   0  0  0  0  0  0  0  0  0  0  0  0
   25.5080   50.4210    5.1150 N   0  0  0  0  0  0  0  0  0  0  0  0
   24.8600   50.3610    3.8170 C   0  0  0  0  0  0  0  0  0  0  0  0
   25.1690   51.6890    5.7410 C   0  0  0  0  0  0  0  0  0  0  0  0
   26.4260   52.4360    6.1690 C   0  0  0  0  0  0  0  0  0  0  0  0
   32.9212   49.5478    7.3604 H   0  0  0  0  0  0  0  0  0  0  0  0
   35.1183   45.6321    9.9476 H   0  0  0  0  0  0  0  0  0  0  0  0
   31.3064   46.9134    7.3600 H   0  0  0  0  0  0  0  0  0  0  0  0
   31.2271   44.9219    8.6733 H   0  0  0  0  0  0  0  0  0  0  0  0
   35.7958   42.0074   10.6539 H   0  0  0  0  0  0  0  0  0  0  0  0
   35.1215   42.4818    9.1134 H   0  0  0  0  0  0  0  0  0  0  0  0
   34.2202   41.4247   10.1732 H   0  0  0  0  0  0  0  0  0  0  0  0
   33.4856   45.8534    5.7056 H   0  0  0  0  0  0  0  0  0  0  0  0
   35.0238   44.3475    4.6532 H   0  0  0  0  0  0  0  0  0  0  0  0
   36.8728   45.1912    3.3720 H   0  0  0  0  0  0  0  0  0  0  0  0
   37.1635   47.5581    3.1621 H   0  0  0  0  0  0  0  0  0  0  0  0
   35.6455   49.1043    4.2000 H   0  0  0  0  0  0  0  0  0  0  0  0
   30.4529   49.0318    6.5897 H   0  0  0  0  0  0  0  0  0  0  0  0
   29.2221   50.8746    7.4792 H   0  0  0  0  0  0  0  0  0  0  0  0
   31.7994   53.5323    5.6282 H   0  0  0  0  0  0  0  0  0  0  0  0
   33.0862   51.7288    4.6996 H   0  0  0  0  0  0  0  0  0  0  0  0
   29.3707   54.6659    8.8513 H   0  0  0  0  0  0  0  0  0  0  0  0
   31.0132   54.1196    8.6127 H   0  0  0  0  0  0  0  0  0  0  0  0
   29.7981   53.0068    9.1943 H   0  0  0  0  0  0  0  0  0  0  0  0
   27.7985   54.5567    4.6035 H   0  0  0  0  0  0  0  0  0  0  0  0
   29.0623   53.2550    4.6172 H   0  0  0  0  0  0  0  0  0  0  0  0
   26.9957   51.6353    3.2738 H   0  0  0  0  0  0  0  0  0  0  0  0
   28.5416   51.4441    4.0209 H   0  0  0  0  0  0  0  0  0  0  0  0
   27.4076   50.2880    5.9472 H   0  0  0  0  0  0  0  0  0  0  0  0
   27.2029   49.4351    4.4322 H   0  0  0  0  0  0  0  0  0  0  0  0
   25.0992   49.4328    3.3415 H   0  0  0  0  0  0  0  0  0  0  0  0
   25.2033   51.1719    3.2092 H   0  0  0  0  0  0  0  0  0  0  0  0
   23.8001   50.4341    3.9438 H   0  0  0  0  0  0  0  0  0  0  0  0
   24.5613   51.5035    6.6019 H   0  0  0  0  0  0  0  0  0  0  0  0
   24.6385   52.2897    5.0321 H   0  0  0  0  0  0  0  0  0  0  0  0
   26.1531   53.3649    6.6246 H   0  0  0  0  0  0  0  0  0  0  0  0
   26.9739   51.8456    6.8734 H   0  0  0  0  0  0  0  0  0  0  0  0
  1  4  1  0  0  0  0
  2 25  1  0  0  0  0
  2  1  2  0  0  0  0
  3  2  1  0  0  0  0
  4  5  1  0  0  0  0
  4 10  1  0  0  0  0
  4 43  1  1  0  0  0
  5  6  1  0  0  0  0
  6  8  1  0  0  0  0
  6  9  1  0  0  0  0
  7  5  2  0  0  0  0
  8 11  2  0  0  0  0
 10 12  2  0  0  0  0
 10  8  1  0  0  0  0
 11 14  1  0  0  0  0
 11 44  1  0  0  0  0
 12 13  1  0  0  0  0
 12 45  1  0  0  0  0
 13 14  2  0  0  0  0
 13 46  1  0  0  0  0
 14 15  1  0  0  0  0
 15 16  2  0  0  0  0
 15 17  1  0  0  0  0
 18 17  1  0  0  0  0
 18 47  1  0  0  0  0
 18 48  1  0  0  0  0
 18 49  1  0  0  0  0
 19 20  1  0  0  0  0
 19  1  1  0  0  0  0
 20 50  1  0  0  0  0
 21 20  2  0  0  0  0
 21 51  1  0  0  0  0
 22 21  1  0  0  0  0
 22 52  1  0  0  0  0
 23 22  2  0  0  0  0
 23 24  1  0  0  0  0
 23 53  1  0  0  0  0
 24 19  2  0  0  0  0
 24 54  1  0  0  0  0
 25 26  1  0  0  0  0
 26 27  2  0  0  0  0
 26 55  1  0  0  0  0
 27 56  1  0  0  0  0
 28 27  1  0  0  0  0
 28 31  1  0  0  0  0
 29 28  2  0  0  0  0
 29 57  1  0  0  0  0
 30 25  2  0  0  0  0
 30 29  1  0  0  0  0
 30 58  1  0  0  0  0
 31 32  1  0  0  0  0
 32 59  1  0  0  0  0
 32 60  1  0  0  0  0
 32 61  1  0  0  0  0
 33 34  2  0  0  0  0
 33 31  1  0  0  0  0
 35 33  1  0  0  0  0
 35 62  1  0  0  0  0
 35 63  1  0  0  0  0
 36 35  1  0  0  0  0
 36 42  1  0  0  0  0
 37 38  1  0  0  0  0
 37 36  1  0  0  0  0
 37 64  1  0  0  0  0
 37 65  1  0  0  0  0
 38 39  1  0  0  0  0
 38 66  1  0  0  0  0
 38 67  1  0  0  0  0
 39 41  1  0  0  0  0
 40 39  1  0  0  0  0
 40 68  1  0  0  0  0
 40 69  1  0  0  0  0
 40 70  1  0  0  0  0
 41 42  1  0  0  0  0
 41 71  1  0  0  0  0
 41 72  1  0  0  0  0
 42 73  1  0  0  0  0
 42 74  1  0  0  0  0
M  END
>  <REMARK>
 VINA RESULT:      -7.5      2.701      4.322
  8 active torsions:
  status: ('A' for Active; 'I' for Inactive)
    1  A    between atoms: O_2  and  C_3 
    2  A    between atoms: C_3  and  C_5 
    3  A    between atoms: C_15  and  C_16 
    4  A    between atoms: C_16  and  C_37 
    5  A    between atoms: N_17  and  C_19 
    6  A    between atoms: C_22  and  N_23 
       I    between atoms: N_23  and  C_25 
    7  A    between atoms: C_25  and  C_27 
    8  A    between atoms: C_27  and  N_28 

>  <TORSDO>
F 8

$$$$
resistance_project/docking/5319283d3047ac55/Q9UM73_WT/docked/molecule_0009_out.pdbqt
 OpenBabel09232609193D

 74 78  0  0  1  0  0  0  0  0999 V2000
   29.1400   51.8650    6.6510 C   0  0  0  0  0  0  0  0  0  0  0  0
   30.2730   51.6840    7.2360 N   0  0  0  0  0  0  0  0  0  0  0  0
   30.4920   52.2860    8.0300 H   0  0  0  0  0  0  0  0  0  0  0  0
   28.7460   50.8330    5.6440 C   0  0  2  0  0  0  0  0  0  0  0  0
   28.3020   51.4620    4.3670 C   0  0  0  0  0  0  0  0  0  0  0  0
   26.9290   51.1180    4.1510 N   0  0  0  0  0  0  0  0  0  0  0  0
   28.9930   52.1760    3.5890 O   0  0  0  0  0  0  0  0  0  0  0  0
   26.4800   50.2980    5.2200 C   0  0  0  0  0  0  0  0  0  0  0  0
   26.3640   51.4150    3.3570 H   0  0  0  0  0  0  0  0  0  0  0  0
   27.5190   50.1040    6.1170 C   0  0  0  0  0  0  0  0  0  0  0  0
   25.2310   49.7410    5.4180 C   0  0  0  0  0  0  0  0  0  0  0  0
   27.2250   49.3200    7.2160 C   0  0  0  0  0  0  0  0  0  0  0  0
   25.9790   48.7590    7.4230 C   0  0  0  0  0  0  0  0  0  0  0  0
   24.9530   48.9600    6.5220 C   0  0  0  0  0  0  0  0  0  0  0  0
   23.6540   48.3590    6.7640 C   0  0  0  0  0  0  0  0  0  0  0  0
   23.3730   47.2640    6.2360 O   0  0  0  0  0  0  0  0  0  0  0  0
   22.7780   49.0660    7.5950 O   0  0  0  0  0  0  0  0  0  0  0  0
   21.4260   48.6160    7.6970 C   0  0  0  0  0  0  0  0  0  0  0  0
   28.2600   52.9960    6.9130 C   0  0  0  0  0  0  0  0  0  0  0  0
   27.1440   52.8540    7.7150 C   0  0  0  0  0  0  0  0  0  0  0  0
   26.3250   53.9270    7.9470 C   0  0  0  0  0  0  0  0  0  0  0  0
   26.5950   55.1470    7.3960 C   0  0  0  0  0  0  0  0  0  0  0  0
   27.7030   55.2750    6.6040 C   0  0  0  0  0  0  0  0  0  0  0  0
   28.5480   54.2190    6.3470 C   0  0  0  0  0  0  0  0  0  0  0  0
   31.2350   50.7250    6.8670 C   0  0  0  0  0  0  0  0  0  0  0  0
   32.2130   50.9950    5.9070 C   0  0  0  0  0  0  0  0  0  0  0  0
   33.1250   50.0230    5.5970 C   0  0  0  0  0  0  0  0  0  0  0  0
   33.1160   48.7730    6.2010 C   0  0  0  0  0  0  0  0  0  0  0  0
   32.1320   48.5590    7.1390 C   0  0  0  0  0  0  0  0  0  0  0  0
   31.1800   49.4940    7.5000 C   0  0  0  0  0  0  0  0  0  0  0  0
   34.0970   47.7740    5.8720 N   0  0  0  0  0  0  0  0  0  0  0  0
   34.3270   47.5390    4.4650 C   0  0  0  0  0  0  0  0  0  0  0  0
   34.7540   47.0940    6.9200 C   0  0  0  0  0  0  0  0  0  0  0  0
   35.7270   46.3370    6.5660 O   0  0  0  0  0  0  0  0  0  0  0  0
   34.4480   47.1630    8.3400 C   0  0  0  0  0  0  0  0  0  0  0  0
   34.2080   45.9590    9.0290 N   0  0  0  0  0  0  0  0  0  0  0  0
   35.1520   45.5680   10.0300 C   0  0  0  0  0  0  0  0  0  0  0  0
   34.3450   44.9690   11.1840 C   0  0  0  0  0  0  0  0  0  0  0  0
   33.6640   43.7550   10.7390 N   0  0  0  0  0  0  0  0  0  0  0  0
   34.6230   42.7250   10.3850 C   0  0  0  0  0  0  0  0  0  0  0  0
   32.8580   44.0590    9.5670 C   0  0  0  0  0  0  0  0  0  0  0  0
   32.8770   45.5520    9.2680 C   0  0  0  0  0  0  0  0  0  0  0  0
   29.6003   50.2026    5.5115 H   0  0  0  0  0  0  0  0  0  0  0  0
   24.4875   49.9131    4.7233 H   0  0  0  0  0  0  0  0  0  0  0  0
   27.9671   49.1460    7.9117 H   0  0  0  0  0  0  0  0  0  0  0  0
   25.8136   48.1821    8.2625 H   0  0  0  0  0  0  0  0  0  0  0  0
   20.8868   49.2551    8.3647 H   0  0  0  0  0  0  0  0  0  0  0  0
   21.4109   47.6141    8.0722 H   0  0  0  0  0  0  0  0  0  0  0  0
   20.9676   48.6418    6.7305 H   0  0  0  0  0  0  0  0  0  0  0  0
   26.9273   51.9387    8.1396 H   0  0  0  0  0  0  0  0  0  0  0  0
   25.4927   53.8120    8.5462 H   0  0  0  0  0  0  0  0  0  0  0  0
   25.9770   55.9543    7.5731 H   0  0  0  0  0  0  0  0  0  0  0  0
   27.9126   56.1945    6.1849 H   0  0  0  0  0  0  0  0  0  0  0  0
   29.3773   54.3404    5.7449 H   0  0  0  0  0  0  0  0  0  0  0  0
   32.2473   51.9139    5.4385 H   0  0  0  0  0  0  0  0  0  0  0  0
   33.8464   50.2268    4.8877 H   0  0  0  0  0  0  0  0  0  0  0  0
   32.1029   47.6383    7.6043 H   0  0  0  0  0  0  0  0  0  0  0  0
   30.4604   49.2843    8.2094 H   0  0  0  0  0  0  0  0  0  0  0  0
   33.7005   48.1867    3.8881 H   0  0  0  0  0  0  0  0  0  0  0  0
   34.0979   46.5202    4.2314 H   0  0  0  0  0  0  0  0  0  0  0  0
   35.3529   47.7360    4.2335 H   0  0  0  0  0  0  0  0  0  0  0  0
   33.5728   47.7692    8.4466 H   0  0  0  0  0  0  0  0  0  0  0  0
   35.3414   47.5489    8.7848 H   0  0  0  0  0  0  0  0  0  0  0  0
   35.7043   46.4195   10.3690 H   0  0  0  0  0  0  0  0  0  0  0  0
   35.8537   44.8595    9.6420 H   0  0  0  0  0  0  0  0  0  0  0  0
   33.6189   45.6813   11.5161 H   0  0  0  0  0  0  0  0  0  0  0  0
   35.0081   44.7258   11.9878 H   0  0  0  0  0  0  0  0  0  0  0  0
   34.1017   41.8478   10.0630 H   0  0  0  0  0  0  0  0  0  0  0  0
   35.2246   42.4895   11.2379 H   0  0  0  0  0  0  0  0  0  0  0  0
   35.2498   43.0783    9.5930 H   0  0  0  0  0  0  0  0  0  0  0  0
   33.2498   43.5279    8.7248 H   0  0  0  0  0  0  0  0  0  0  0  0
   31.8484   43.7613    9.7593 H   0  0  0  0  0  0  0  0  0  0  0  0
   32.2805   45.7516    8.4024 H   0  0  0  0  0  0  0  0  0  0  0  0
   32.4796   46.0916   10.1022 H   0  0  0  0  0  0  0  0  0  0  0  0
  1 19  1  0  0  0  0
  1  2  2  0  0  0  0
  2  3  1  0  0  0  0
  4 10  1  0  0  0  0
  4  1  1  0  0  0  0
  4 43  1  6  0  0  0
  5  4  1  0  0  0  0
  6  5  1  0  0  0  0
  6  8  1  0  0  0  0
  7  5  2  0  0  0  0
  8 11  2  0  0  0  0
  8 10  1  0  0  0  0
  9  6  1  0  0  0  0
 10 12  2  0  0  0  0
 11 14  1  0  0  0  0
 11 44  1  0  0  0  0
 12 13  1  0  0  0  0
 12 45  1  0  0  0  0
 13 46  1  0  0  0  0
 14 15  1  0  0  0  0
 14 13  2  0  0  0  0
 15 17  1  0  0  0  0
 16 15  2  0  0  0  0
 17 18  1  0  0  0  0
 18 47  1  0  0  0  0
 18 48  1  0  0  0  0
 18 49  1  0  0  0  0
 19 20  2  0  0  0  0
 20 21  1  0  0  0  0
 20 50  1  0  0  0  0
 21 51  1  0  0  0  0
 22 21  2  0  0  0  0
 22 52  1  0  0  0  0
 23 22  1  0  0  0  0
 23 53  1  0  0  0  0
 24 23  2  0  0  0  0
 24 19  1  0  0  0  0
 24 54  1  0  0  0  0
 25  2  1  0  0  0  0
 25 30  2  0  0  0  0
 26 25  1  0  0  0  0
 26 55  1  0  0  0  0
 27 26  2  0  0  0  0
 27 28  1  0  0  0  0
 27 56  1  0  0  0  0
 28 29  2  0  0  0  0
 29 30  1  0  0  0  0
 29 57  1  0  0  0  0
 30 58  1  0  0  0  0
 31 28  1  0  0  0  0
 31 33  1  0  0  0  0
 32 31  1  0  0  0  0
 32 59  1  0  0  0  0
 32 60  1  0  0  0  0
 32 61  1  0  0  0  0
 33 35  1  0  0  0  0
 34 33  2  0  0  0  0
 35 36  1  0  0  0  0
 35 62  1  0  0  0  0
 35 63  1  0  0  0  0
 36 42  1  0  0  0  0
 36 37  1  0  0  0  0
 37 38  1  0  0  0  0
 37 64  1  0  0  0  0
 37 65  1  0  0  0  0
 38 66  1  0  0  0  0
 38 67  1  0  0  0  0
 39 38  1  0  0  0  0
 40 39  1  0  0  0  0
 40 68  1  0  0  0  0
 40 69  1  0  0  0  0
 40 70  1  0  0  0  0
 41 39  1  0  0  0  0
 41 71  1  0  0  0  0
 41 72  1  0  0  0  0
 42 41  1  0  0  0  0
 42 73  1  0  0  0  0
 42 74  1  0  0  0  0
M  END
>  <REMARK>
 VINA RESULT:      -7.4      2.880     10.504
  8 active torsions:
  status: ('A' for Active; 'I' for Inactive)
    1  A    between atoms: O_2  and  C_3 
    2  A    between atoms: C_3  and  C_5 
    3  A    between atoms: C_15  and  C_16 
    4  A    between atoms: C_16  and  C_37 
    5  A    between atoms: N_17  and  C_19 
    6  A    between atoms: C_22  and  N_23 
       I    between atoms: N_23  and  C_25 
    7  A    between atoms: C_25  and  C_27 
    8  A    between atoms: C_27  and  N_28 

>  <TORSDO>
F 8

$$$$
resistance_project/docking/5319283d3047ac55/Q9UM73_WT/docked/molecule_0009_out.pdbqt
 OpenBabel09232609193D

 74 78  0  0  1  0  0  0  0  0999 V2000
   32.2190   47.9010    7.7970 C   0  0  0  0  0  0  0  0  0  0  0  0
   31.2180   48.5780    8.2410 N   0  0  0  0  0  0  0  0  0  0  0  0
   31.0310   48.5360    9.2430 H   0  0  0  0  0  0  0  0  0  0  0  0
   32.6080   48.1540    6.3760 C   0  0  2  0  0  0  0  0  0  0  0  0
   32.3780   46.9510    5.5260 C   0  0  0  0  0  0  0  0  0  0  0  0
   33.6410   46.5160    5.0120 N   0  0  0  0  0  0  0  0  0  0  0  0
   31.2740   46.3910    5.2830 O   0  0  0  0  0  0  0  0  0  0  0  0
   34.6610   47.3840    5.4840 C   0  0  0  0  0  0  0  0  0  0  0  0
   33.7860   45.7110    4.4040 H   0  0  0  0  0  0  0  0  0  0  0  0
   34.0950   48.3630    6.2860 C   0  0  0  0  0  0  0  0  0  0  0  0
   36.0200   47.3390    5.2380 C   0  0  0  0  0  0  0  0  0  0  0  0
   34.9740   49.2850    6.8200 C   0  0  0  0  0  0  0  0  0  0  0  0
   36.3350   49.2470    6.5790 C   0  0  0  0  0  0  0  0  0  0  0  0
   36.8850   48.2670    5.7780 C   0  0  0  0  0  0  0  0  0  0  0  0
   38.3180   48.2510    5.5430 C   0  0  0  0  0  0  0  0  0  0  0  0
   38.7950   47.4710    4.6950 O   0  0  0  0  0  0  0  0  0  0  0  0
   39.0920   49.1330    6.3050 O   0  0  0  0  0  0  0  0  0  0  0  0
   39.9630   48.5890    7.2990 C   0  0  0  0  0  0  0  0  0  0  0  0
   32.9570   46.9260    8.5890 C   0  0  0  0  0  0  0  0  0  0  0  0
   34.0650   47.3040    9.3240 C   0  0  0  0  0  0  0  0  0  0  0  0
   34.7500   46.3730   10.0600 C   0  0  0  0  0  0  0  0  0  0  0  0
   34.3540   45.0660   10.0800 C   0  0  0  0  0  0  0  0  0  0  0  0
   33.2570   44.7050    9.3480 C   0  0  0  0  0  0  0  0  0  0  0  0
   32.5440   45.6120    8.5960 C   0  0  0  0  0  0  0  0  0  0  0  0
   30.3590   49.3710    7.4560 C   0  0  0  0  0  0  0  0  0  0  0  0
   30.6820   50.6840    7.1080 C   0  0  0  0  0  0  0  0  0  0  0  0
   29.8100   51.4010    6.3370 C   0  0  0  0  0  0  0  0  0  0  0  0
   28.6080   50.8720    5.8840 C   0  0  0  0  0  0  0  0  0  0  0  0
   28.3380   49.5750    6.2550 C   0  0  0  0  0  0  0  0  0  0  0  0
   29.1730   48.7940    7.0310 C   0  0  0  0  0  0  0  0  0  0  0  0
   27.7150   51.6390    5.0580 N   0  0  0  0  0  0  0  0  0  0  0  0
   28.0400   51.7050    3.6510 C   0  0  0  0  0  0  0  0  0  0  0  0
   26.6050   52.2710    5.6580 C   0  0  0  0  0  0  0  0  0  0  0  0
   25.7630   52.8000    4.8490 O   0  0  0  0  0  0  0  0  0  0  0  0
   26.3210   52.3820    7.0800 C   0  0  0  0  0  0  0  0  0  0  0  0
   26.5190   53.6290    7.7030 N   0  0  0  0  0  0  0  0  0  0  0  0
   27.6550   54.4000    7.3020 C   0  0  0  0  0  0  0  0  0  0  0  0
   27.2030   55.8620    7.2650 C   0  0  0  0  0  0  0  0  0  0  0  0
   26.8390   56.3040    8.6090 N   0  0  0  0  0  0  0  0  0  0  0  0
   27.9950   56.2960    9.4870 C   0  0  0  0  0  0  0  0  0  0  0  0
   25.8370   55.4020    9.1570 C   0  0  0  0  0  0  0  0  0  0  0  0
   25.3980   54.3830    8.1150 C   0  0  0  0  0  0  0  0  0  0  0  0
   32.0311   48.9955    6.0537 H   0  0  0  0  0  0  0  0  0  0  0  0
   36.3972   46.5916    4.6346 H   0  0  0  0  0  0  0  0  0  0  0  0
   34.5994   50.0333    7.4239 H   0  0  0  0  0  0  0  0  0  0  0  0
   36.9475   49.9608    7.0037 H   0  0  0  0  0  0  0  0  0  0  0  0
   40.4822   49.3841    7.7921 H   0  0  0  0  0  0  0  0  0  0  0  0
   40.6709   47.9353    6.8338 H   0  0  0  0  0  0  0  0  0  0  0  0
   39.3880   48.0403    8.0154 H   0  0  0  0  0  0  0  0  0  0  0  0
   34.3765   48.2879    9.3184 H   0  0  0  0  0  0  0  0  0  0  0  0
   35.5760   46.6632   10.6064 H   0  0  0  0  0  0  0  0  0  0  0  0
   34.8712   44.3665   10.6352 H   0  0  0  0  0  0  0  0  0  0  0  0
   32.9529   43.7189    9.3594 H   0  0  0  0  0  0  0  0  0  0  0  0
   31.7199   45.3143    8.0507 H   0  0  0  0  0  0  0  0  0  0  0  0
   31.5669   51.1074    7.4284 H   0  0  0  0  0  0  0  0  0  0  0  0
   30.0536   52.3709    6.0821 H   0  0  0  0  0  0  0  0  0  0  0  0
   27.4516   49.1570    5.9318 H   0  0  0  0  0  0  0  0  0  0  0  0
   28.9245   47.8245    7.2827 H   0  0  0  0  0  0  0  0  0  0  0  0
   27.3088   52.2989    3.1435 H   0  0  0  0  0  0  0  0  0  0  0  0
   28.0453   50.7173    3.2395 H   0  0  0  0  0  0  0  0  0  0  0  0
   29.0064   52.1476    3.5286 H   0  0  0  0  0  0  0  0  0  0  0  0
   26.9440   51.6731    7.5842 H   0  0  0  0  0  0  0  0  0  0  0  0
   25.2669   52.2135    7.1536 H   0  0  0  0  0  0  0  0  0  0  0  0
   28.4510   54.2778    8.0065 H   0  0  0  0  0  0  0  0  0  0  0  0
   28.0164   54.0844    6.3456 H   0  0  0  0  0  0  0  0  0  0  0  0
   26.3550   55.9550    6.6191 H   0  0  0  0  0  0  0  0  0  0  0  0
   28.0044   56.4694    6.8994 H   0  0  0  0  0  0  0  0  0  0  0  0
   28.7428   56.9552    9.0982 H   0  0  0  0  0  0  0  0  0  0  0  0
   28.3906   55.3036    9.5468 H   0  0  0  0  0  0  0  0  0  0  0  0
   27.7037   56.6233   10.4632 H   0  0  0  0  0  0  0  0  0  0  0  0
   26.2515   54.8869    9.9983 H   0  0  0  0  0  0  0  0  0  0  0  0
   24.9848   55.9767    9.4545 H   0  0  0  0  0  0  0  0  0  0  0  0
   24.6639   53.7304    8.5394 H   0  0  0  0  0  0  0  0  0  0  0  0
   24.9753   54.8892    7.2724 H   0  0  0  0  0  0  0  0  0  0  0  0
  1  2  2  0  0  0  0
  1 19  1  0  0  0  0
  2  3  1  0  0  0  0
  4  1  1  0  0  0  0
  4 43  1  6  0  0  0
  5  4  1  0  0  0  0
  6  8  1  0  0  0  0
  6  5  1  0  0  0  0
  7  5  2  0  0  0  0
  8 10  1  0  0  0  0
  9  6  1  0  0  0  0
 10  4  1  0  0  0  0
 10 12  2  0  0  0  0
 11  8  2  0  0  0  0
 11 14  1  0  0  0  0
 11 44  1  0  0  0  0
 12 45  1  0  0  0  0
 13 12  1  0  0  0  0
 13 46  1  0  0  0  0
 14 13  2  0  0  0  0
 15 14  1  0  0  0  0
 15 17  1  0  0  0  0
 16 15  2  0  0  0  0
 17 18  1  0  0  0  0
 18 47  1  0  0  0  0
 18 48  1  0  0  0  0
 18 49  1  0  0  0  0
 19 24  2  0  0  0  0
 19 20  1  0  0  0  0
 20 21  2  0  0  0  0
 20 50  1  0  0  0  0
 21 22  1  0  0  0  0
 21 51  1  0  0  0  0
 22 52  1  0  0  0  0
 23 22  2  0  0  0  0
 23 53  1  0  0  0  0
 24 23  1  0  0  0  0
 24 54  1  0  0  0  0
 25  2  1  0  0  0  0
 26 25  1  0  0  0  0
 26 55  1  0  0  0  0
 27 26  2  0  0  0  0
 27 56  1  0  0  0  0
 28 29  2  0  0  0  0
 28 27  1  0  0  0  0
 29 30  1  0  0  0  0
 29 57  1  0  0  0  0
 30 25  2  0  0  0  0
 30 58  1  0  0  0  0
 31 33  1  0  0  0  0
 31 28  1  0  0  0  0
 32 31  1  0  0  0  0
 32 59  1  0  0  0  0
 32 60  1  0  0  0  0
 32 61  1  0  0  0  0
 33 35  1  0  0  0  0
 34 33  2  0  0  0  0
 35 36  1  0  0  0  0
 35 62  1  0  0  0  0
 35 63  1  0  0  0  0
 36 42  1  0  0  0  0
 37 36  1  0  0  0  0
 37 64  1  0  0  0  0
 37 65  1  0  0  0  0
 38 37  1  0  0  0  0
 38 39  1  0  0  0  0
 38 66  1  0  0  0  0
 38 67  1  0  0  0  0
 39 41  1  0  0  0  0
 39 40  1  0  0  0  0
 40 68  1  0  0  0  0
 40 69  1  0  0  0  0
 40 70  1  0  0  0  0
 41 71  1  0  0  0  0
 41 72  1  0  0  0  0
 42 41  1  0  0  0  0
 42 73  1  0  0  0  0
 42 74  1  0  0  0  0
M  END
>  <REMARK>
 VINA RESULT:      -7.4      3.462      5.605
  8 active torsions:
  status: ('A' for Active; 'I' for Inactive)
    1  A    between atoms: O_2  and  C_3 
    2  A    between atoms: C_3  and  C_5 
    3  A    between atoms: C_15  and  C_16 
    4  A    between atoms: C_16  and  C_37 
    5  A    between atoms: N_17  and  C_19 
    6  A    between atoms: C_22  and  N_23 
       I    between atoms: N_23  and  C_25 
    7  A    between atoms: C_25  and  C_27 
    8  A    between atoms: C_27  and  N_28 

>  <TORSDO>
F 8

$$$$
resistance_project/docking/5319283d3047ac55/Q9UM73_WT/docked/molecule_0009_out.pdbqt
 OpenBabel09232609193D

 74 78  0  0  1  0  0  0  0  0999 V2000
   36.7630   47.9510    7.8280 C   0  0  0  0  0  0  0  0  0  0  0  0
   36.8630   47.1750    8.8510 N   0  0  0  0  0  0  0  0  0  0  0  0
   37.3820   47.5260    9.6560 H   0  0  0  0  0  0  0  0  0  0  0  0
   35.8160   47.5120    6.7570 C   0  0  2  0  0  0  0  0  0  0  0  0
   36.2570   47.9860    5.4140 C   0  0  0  0  0  0  0  0  0  0  0  0
   35.2540   48.8690    4.8990 N   0  0  0  0  0  0  0  0  0  0  0  0
   37.3210   47.6800    4.8100 O   0  0  0  0  0  0  0  0  0  0  0  0
   34.1970   48.9750    5.8410 C   0  0  0  0  0  0  0  0  0  0  0  0
   35.2930   49.3460    3.9990 H   0  0  0  0  0  0  0  0  0  0  0  0
   34.4870   48.1890    6.9450 C   0  0  0  0  0  0  0  0  0  0  0  0
   33.0320   49.7140    5.7570 C   0  0  0  0  0  0  0  0  0  0  0  0
   33.5400   48.1930    7.9520 C   0  0  0  0  0  0  0  0  0  0  0  0
   32.3720   48.9300    7.8760 C   0  0  0  0  0  0  0  0  0  0  0  0
   32.0960   49.7080    6.7700 C   0  0  0  0  0  0  0  0  0  0  0  0
   30.8620   50.4720    6.7190 C   0  0  0  0  0  0  0  0  0  0  0  0
   29.7710   49.8940    6.8950 O   0  0  0  0  0  0  0  0  0  0  0  0
   30.9800   51.8430    6.4650 O   0  0  0  0  0  0  0  0  0  0  0  0
   30.0640   52.7330    7.1040 C   0  0  0  0  0  0  0  0  0  0  0  0
   37.5120   49.1900    7.6700 C   0  0  0  0  0  0  0  0  0  0  0  0
   36.9010   50.4150    7.8570 C   0  0  0  0  0  0  0  0  0  0  0  0
   37.6200   51.5710    7.7010 C   0  0  0  0  0  0  0  0  0  0  0  0
   38.9410   51.5330    7.3600 C   0  0  0  0  0  0  0  0  0  0  0  0
   39.5340   50.3150    7.1770 C   0  0  0  0  0  0  0  0  0  0  0  0
   38.8440   49.1330    7.3250 C   0  0  0  0  0  0  0  0  0  0  0  0
   36.3160   45.8810    8.9470 C   0  0  0  0  0  0  0  0  0  0  0  0
   36.7210   44.8460    8.1010 C   0  0  0  0  0  0  0  0  0  0  0  0
   36.1580   43.6080    8.2490 C   0  0  0  0  0  0  0  0  0  0  0  0
   35.1930   43.3400    9.2110 C   0  0  0  0  0  0  0  0  0  0  0  0
   34.8290   44.3940   10.0180 C   0  0  0  0  0  0  0  0  0  0  0  0
   35.3570   45.6680    9.9240 C   0  0  0  0  0  0  0  0  0  0  0  0
   34.6280   42.0260    9.3610 N   0  0  0  0  0  0  0  0  0  0  0  0
   35.2710   41.1560   10.3210 C   0  0  0  0  0  0  0  0  0  0  0  0
   33.5110   41.6700    8.5750 C   0  0  0  0  0  0  0  0  0  0  0  0
   32.9590   40.5510    8.8700 O   0  0  0  0  0  0  0  0  0  0  0  0
   32.9300   42.4310    7.4810 C   0  0  0  0  0  0  0  0  0  0  0  0
   31.9970   43.4400    7.7930 N   0  0  0  0  0  0  0  0  0  0  0  0
   31.1720   43.2470    8.9450 C   0  0  0  0  0  0  0  0  0  0  0  0
   31.0410   44.6130    9.6240 C   0  0  0  0  0  0  0  0  0  0  0  0
   30.3370   45.5420    8.7430 N   0  0  0  0  0  0  0  0  0  0  0  0
   28.9700   45.1080    8.5190 C   0  0  0  0  0  0  0  0  0  0  0  0
   31.0200   45.5970    7.4590 C   0  0  0  0  0  0  0  0  0  0  0  0
   32.3080   44.7850    7.4950 C   0  0  0  0  0  0  0  0  0  0  0  0
   35.7708   46.4446    6.8169 H   0  0  0  0  0  0  0  0  0  0  0  0
   32.8581   50.2847    4.9150 H   0  0  0  0  0  0  0  0  0  0  0  0
   33.7115   47.6228    8.7949 H   0  0  0  0  0  0  0  0  0  0  0  0
   31.6979   48.8977    8.6568 H   0  0  0  0  0  0  0  0  0  0  0  0
   30.2815   53.7390    6.8116 H   0  0  0  0  0  0  0  0  0  0  0  0
   30.1598   52.6415    8.1658 H   0  0  0  0  0  0  0  0  0  0  0  0
   29.0645   52.4853    6.8134 H   0  0  0  0  0  0  0  0  0  0  0  0
   35.9026   50.4594    8.1143 H   0  0  0  0  0  0  0  0  0  0  0  0
   37.1567   52.4821    7.8432 H   0  0  0  0  0  0  0  0  0  0  0  0
   39.4805   52.4049    7.2428 H   0  0  0  0  0  0  0  0  0  0  0  0
   40.5327   50.2804    6.9192 H   0  0  0  0  0  0  0  0  0  0  0  0
   39.3139   48.2256    7.1808 H   0  0  0  0  0  0  0  0  0  0  0  0
   37.4348   45.0128    7.3746 H   0  0  0  0  0  0  0  0  0  0  0  0
   36.4614   42.8456    7.6231 H   0  0  0  0  0  0  0  0  0  0  0  0
   34.1139   44.2215   10.7418 H   0  0  0  0  0  0  0  0  0  0  0  0
   35.0506   46.4264   10.5533 H   0  0  0  0  0  0  0  0  0  0  0  0
   34.7649   40.2135   10.3432 H   0  0  0  0  0  0  0  0  0  0  0  0
   35.2317   41.6049   11.2915 H   0  0  0  0  0  0  0  0  0  0  0  0
   36.2921   41.0059   10.0385 H   0  0  0  0  0  0  0  0  0  0  0  0
   33.7370   42.8968    6.9550 H   0  0  0  0  0  0  0  0  0  0  0  0
   32.3655   41.7102    6.9273 H   0  0  0  0  0  0  0  0  0  0  0  0
   31.6279   42.5455    9.6121 H   0  0  0  0  0  0  0  0  0  0  0  0
   30.2131   42.8587    8.6719 H   0  0  0  0  0  0  0  0  0  0  0  0
   30.4922   44.5044   10.5361 H   0  0  0  0  0  0  0  0  0  0  0  0
   32.0176   44.9974    9.8324 H   0  0  0  0  0  0  0  0  0  0  0  0
   28.4765   45.8031    7.8723 H   0  0  0  0  0  0  0  0  0  0  0  0
   28.4526   45.0620    9.4544 H   0  0  0  0  0  0  0  0  0  0  0  0
   28.9733   44.1390    8.0652 H   0  0  0  0  0  0  0  0  0  0  0  0
   30.3762   45.1999    6.7022 H   0  0  0  0  0  0  0  0  0  0  0  0
   31.2637   46.6165    7.2441 H   0  0  0  0  0  0  0  0  0  0  0  0
   32.9585   45.1779    8.2482 H   0  0  0  0  0  0  0  0  0  0  0  0
   32.7963   44.8405    6.5445 H   0  0  0  0  0  0  0  0  0  0  0  0
  1  2  2  0  0  0  0
  2 25  1  0  0  0  0
  2  3  1  0  0  0  0
  4 10  1  0  0  0  0
  4  1  1  0  0  0  0
  4 43  1  1  0  0  0
  5  4  1  0  0  0  0
  6  5  1  0  0  0  0
  6  8  1  0  0  0  0
  7  5  2  0  0  0  0
  8 10  1  0  0  0  0
  9  6  1  0  0  0  0
 10 12  2  0  0  0  0
 11  8  2  0  0  0  0
 11 14  1  0  0  0  0
 11 44  1  0  0  0  0
 12 45  1  0  0  0  0
 13 12  1  0  0  0  0
 13 46  1  0  0  0  0
 14 13  2  0  0  0  0
 15 14  1  0  0  0  0
 15 16  2  0  0  0  0
 17 15  1  0  0  0  0
 17 18  1  0  0  0  0
 18 47  1  0  0  0  0
 18 48  1  0  0  0  0
 18 49  1  0  0  0  0
 19  1  1  0  0  0  0
 19 20  2  0  0  0  0
 20 50  1  0  0  0  0
 21 20  1  0  0  0  0
 21 51  1  0  0  0  0
 22 21  2  0  0  0  0
 22 52  1  0  0  0  0
 23 24  2  0  0  0  0
 23 22  1  0  0  0  0
 23 53  1  0  0  0  0
 24 19  1  0  0  0  0
 24 54  1  0  0  0  0
 25 30  2  0  0  0  0
 26 27  2  0  0  0  0
 26 25  1  0  0  0  0
 26 55  1  0  0  0  0
 27 28  1  0  0  0  0
 27 56  1  0  0  0  0
 28 31  1  0  0  0  0
 28 29  2  0  0  0  0
 29 57  1  0  0  0  0
 30 29  1  0  0  0  0
 30 58  1  0  0  0  0
 31 32  1  0  0  0  0
 32 59  1  0  0  0  0
 32 60  1  0  0  0  0
 32 61  1  0  0  0  0
 33 34  2  0  0  0  0
 33 31  1  0  0  0  0
 35 36  1  0  0  0  0
 35 33  1  0  0  0  0
 35 62  1  0  0  0  0
 35 63  1  0  0  0  0
 36 37  1  0  0  0  0
 37 38  1  0  0  0  0
 37 64  1  0  0  0  0
 37 65  1  0  0  0  0
 38 66  1  0  0  0  0
 38 67  1  0  0  0  0
 39 38  1  0  0  0  0
 40 39  1  0  0  0  0
 40 68  1  0  0  0  0
 40 69  1  0  0  0  0
 40 70  1  0  0  0  0
 41 42  1  0  0  0  0
 41 39  1  0  0  0  0
 41 71  1  0  0  0  0
 41 72  1  0  0  0  0
 42 36  1  0  0  0  0
 42 73  1  0  0  0  0
 42 74  1  0  0  0  0
M  END
>  <REMARK>
 VINA RESULT:      -7.3      2.837      8.059
  8 active torsions:
  status: ('A' for Active; 'I' for Inactive)
    1  A    between atoms: O_2  and  C_3 
    2  A    between atoms: C_3  and  C_5 
    3  A    between atoms: C_15  and  C_16 
    4  A    between atoms: C_16  and  C_37 
    5  A    between atoms: N_17  and  C_19 
    6  A    between atoms: C_22  and  N_23 
       I    between atoms: N_23  and  C_25 
    7  A    between atoms: C_25  and  C_27 
    8  A    between atoms: C_27  and  N_28 

>  <TORSDO>
F 8

$$$$
resistance_project/docking/5319283d3047ac55/Q9UM73_WT/docked/molecule_0009_out.pdbqt
 OpenBabel09232609193D

 74 78  0  0  1  0  0  0  0  0999 V2000
   35.0850   44.8440    6.5970 C   0  0  0  0  0  0  0  0  0  0  0  0
   35.7490   44.7210    5.5000 N   0  0  0  0  0  0  0  0  0  0  0  0
   35.8820   43.7770    5.1360 H   0  0  0  0  0  0  0  0  0  0  0  0
   34.7110   46.2370    6.9880 C   0  0  2  0  0  0  0  0  0  0  0  0
   35.0490   46.5100    8.4150 C   0  0  0  0  0  0  0  0  0  0  0  0
   33.8330   46.7850    9.1190 N   0  0  0  0  0  0  0  0  0  0  0  0
   36.1960   46.5090    8.9390 O   0  0  0  0  0  0  0  0  0  0  0  0
   32.7410   46.7070    8.2140 C   0  0  0  0  0  0  0  0  0  0  0  0
   33.7620   47.0010   10.1130 H   0  0  0  0  0  0  0  0  0  0  0  0
   33.2160   46.3920    6.9500 C   0  0  0  0  0  0  0  0  0  0  0  0
   31.3960   46.8990    8.4620 C   0  0  0  0  0  0  0  0  0  0  0  0
   32.2590   46.2820    5.9590 C   0  0  0  0  0  0  0  0  0  0  0  0
   30.9100   46.4720    6.1980 C   0  0  0  0  0  0  0  0  0  0  0  0
   30.4520   46.7870    7.4610 C   0  0  0  0  0  0  0  0  0  0  0  0
   29.0300   46.9800    7.6830 C   0  0  0  0  0  0  0  0  0  0  0  0
   28.4940   48.0540    7.3460 O   0  0  0  0  0  0  0  0  0  0  0  0
   28.3350   45.9210    8.2780 O   0  0  0  0  0  0  0  0  0  0  0  0
   28.1630   45.9320    9.6960 C   0  0  0  0  0  0  0  0  0  0  0  0
   34.7030   43.7240    7.4470 C   0  0  0  0  0  0  0  0  0  0  0  0
   35.6110   43.1610    8.3240 C   0  0  0  0  0  0  0  0  0  0  0  0
   35.2370   42.1050    9.1140 C   0  0  0  0  0  0  0  0  0  0  0  0
   33.9720   41.5960    9.0490 C   0  0  0  0  0  0  0  0  0  0  0  0
   33.0830   42.1630    8.1780 C   0  0  0  0  0  0  0  0  0  0  0  0
   33.4230   43.2230    7.3690 C   0  0  0  0  0  0  0  0  0  0  0  0
   36.3080   45.7830    4.7640 C   0  0  0  0  0  0  0  0  0  0  0  0
   35.7170   46.2560    3.5900 C   0  0  0  0  0  0  0  0  0  0  0  0
   36.3040   47.2960    2.9230 C   0  0  0  0  0  0  0  0  0  0  0  0
   37.4720   47.9010    3.3680 C   0  0  0  0  0  0  0  0  0  0  0  0
   38.0130   47.3970    4.5290 C   0  0  0  0  0  0  0  0  0  0  0  0
   37.4740   46.3510    5.2520 C   0  0  0  0  0  0  0  0  0  0  0  0
   38.0610   49.0060    2.6610 N   0  0  0  0  0  0  0  0  0  0  0  0
   39.1360   48.6840    1.7490 C   0  0  0  0  0  0  0  0  0  0  0  0
   37.5700   50.3080    2.8990 C   0  0  0  0  0  0  0  0  0  0  0  0
   38.0230   51.2220    2.1230 O   0  0  0  0  0  0  0  0  0  0  0  0
   36.6160   50.7130    3.9190 C   0  0  0  0  0  0  0  0  0  0  0  0
   37.1110   51.0910    5.1820 N   0  0  0  0  0  0  0  0  0  0  0  0
   37.3840   52.4780    5.4000 C   0  0  0  0  0  0  0  0  0  0  0  0
   36.9450   52.7910    6.8330 C   0  0  0  0  0  0  0  0  0  0  0  0
   37.7650   52.0380    7.7810 N   0  0  0  0  0  0  0  0  0  0  0  0
   39.1510   52.4640    7.7160 C   0  0  0  0  0  0  0  0  0  0  0  0
   37.7010   50.6220    7.4520 C   0  0  0  0  0  0  0  0  0  0  0  0
   36.7060   50.3710    6.3270 C   0  0  0  0  0  0  0  0  0  0  0  0
   35.2310   46.8862    6.3150 H   0  0  0  0  0  0  0  0  0  0  0  0
   31.0891   47.1320    9.4194 H   0  0  0  0  0  0  0  0  0  0  0  0
   32.5635   46.0484    5.0010 H   0  0  0  0  0  0  0  0  0  0  0  0
   30.2370   46.3769    5.4214 H   0  0  0  0  0  0  0  0  0  0  0  0
   27.6161   45.0625    9.9957 H   0  0  0  0  0  0  0  0  0  0  0  0
   27.6225   46.8098    9.9829 H   0  0  0  0  0  0  0  0  0  0  0  0
   29.1215   45.9320   10.1716 H   0  0  0  0  0  0  0  0  0  0  0  0
   36.5707   43.5357    8.3841 H   0  0  0  0  0  0  0  0  0  0  0  0
   35.9204   41.6895    9.7662 H   0  0  0  0  0  0  0  0  0  0  0  0
   33.6926   40.8006    9.6442 H   0  0  0  0  0  0  0  0  0  0  0  0
   32.1249   41.7831    8.1257 H   0  0  0  0  0  0  0  0  0  0  0  0
   32.7344   43.6330    6.7188 H   0  0  0  0  0  0  0  0  0  0  0  0
   34.8498   45.8269    3.2310 H   0  0  0  0  0  0  0  0  0  0  0  0
   35.8627   47.6437    2.0574 H   0  0  0  0  0  0  0  0  0  0  0  0
   38.8802   47.8301    4.8832 H   0  0  0  0  0  0  0  0  0  0  0  0
   37.9197   46.0077    6.1171 H   0  0  0  0  0  0  0  0  0  0  0  0
   39.4911   49.5806    1.2855 H   0  0  0  0  0  0  0  0  0  0  0  0
   38.7771   48.0121    0.9976 H   0  0  0  0  0  0  0  0  0  0  0  0
   39.9353   48.2210    2.2891 H   0  0  0  0  0  0  0  0  0  0  0  0
   35.9486   49.8910    4.0731 H   0  0  0  0  0  0  0  0  0  0  0  0
   36.1753   51.6067    3.5292 H   0  0  0  0  0  0  0  0  0  0  0  0
   36.8318   53.0764    4.7058 H   0  0  0  0  0  0  0  0  0  0  0  0
   38.4226   52.6934    5.2592 H   0  0  0  0  0  0  0  0  0  0  0  0
   35.9180   52.5176    6.9571 H   0  0  0  0  0  0  0  0  0  0  0  0
   37.0656   53.8381    7.0174 H   0  0  0  0  0  0  0  0  0  0  0  0
   39.2158   53.5048    7.9557 H   0  0  0  0  0  0  0  0  0  0  0  0
   39.5282   52.3014    6.7280 H   0  0  0  0  0  0  0  0  0  0  0  0
   39.7307   51.8999    8.4164 H   0  0  0  0  0  0  0  0  0  0  0  0
   38.6701   50.2897    7.1434 H   0  0  0  0  0  0  0  0  0  0  0  0
   37.3803   50.0833    8.3191 H   0  0  0  0  0  0  0  0  0  0  0  0
   36.6771   49.3255    6.1010 H   0  0  0  0  0  0  0  0  0  0  0  0
   35.7316   50.6935    6.6293 H   0  0  0  0  0  0  0  0  0  0  0  0
  1  4  1  0  0  0  0
  1 19  1  0  0  0  0
  2  1  2  0  0  0  0
  3  2  1  0  0  0  0
  4  5  1  0  0  0  0
  4 43  1  6  0  0  0
  5  7  2  0  0  0  0
  5  6  1  0  0  0  0
  6  9  1  0  0  0  0
  8 11  1  0  0  0  0
  8  6  1  0  0  0  0
 10  4  1  0  0  0  0
 10  8  2  0  0  0  0
 11 44  1  0  0  0  0
 12 13  2  0  0  0  0
 12 10  1  0  0  0  0
 12 45  1  0  0  0  0
 13 14  1  0  0  0  0
 13 46  1  0  0  0  0
 14 15  1  0  0  0  0
 14 11  2  0  0  0  0
 15 17  1  0  0  0  0
 16 15  2  0  0  0  0
 17 18  1  0  0  0  0
 18 47  1  0  0  0  0
 18 48  1  0  0  0  0
 18 49  1  0  0  0  0
 19 20  1  0  0  0  0
 20 21  2  0  0  0  0
 20 50  1  0  0  0  0
 21 51  1  0  0  0  0
 22 21  1  0  0  0  0
 22 52  1  0  0  0  0
 23 22  2  0  0  0  0
 23 53  1  0  0  0  0
 24 19  2  0  0  0  0
 24 23  1  0  0  0  0
 24 54  1  0  0  0  0
 25 30  1  0  0  0  0
 25  2  1  0  0  0  0
 26 25  2  0  0  0  0
 26 55  1  0  0  0  0
 27 28  2  0  0  0  0
 27 26  1  0  0  0  0
 27 56  1  0  0  0  0
 28 29  1  0  0  0  0
 29 30  2  0  0  0  0
 29 57  1  0  0  0  0
 30 58  1  0  0  0  0
 31 33  1  0  0  0  0
 31 28  1  0  0  0  0
 32 31  1  0  0  0  0
 32 59  1  0  0  0  0
 32 60  1  0  0  0  0
 32 61  1  0  0  0  0
 33 35  1  0  0  0  0
 34 33  2  0  0  0  0
 35 36  1  0  0  0  0
 35 62  1  0  0  0  0
 35 63  1  0  0  0  0
 36 37  1  0  0  0  0
 36 42  1  0  0  0  0
 37 38  1  0  0  0  0
 37 64  1  0  0  0  0
 37 65  1  0  0  0  0
 38 39  1  0  0  0  0
 38 66  1  0  0  0  0
 38 67  1  0  0  0  0
 40 39  1  0  0  0  0
 40 68  1  0  0  0  0
 40 69  1  0  0  0  0
 40 70  1  0  0  0  0
 41 39  1  0  0  0  0
 41 71  1  0  0  0  0
 41 72  1  0  0  0  0
 42 41  1  0  0  0  0
 42 73  1  0  0  0  0
 42 74  1  0  0  0  0
M  END
>  <REMARK>
 VINA RESULT:      -7.3      3.938      7.543
  8 active torsions:
  status: ('A' for Active; 'I' for Inactive)
    1  A    between atoms: O_2  and  C_3 
    2  A    between atoms: C_3  and  C_5 
    3  A    between atoms: C_15  and  C_16 
    4  A    between atoms: C_16  and  C_37 
    5  A    between atoms: N_17  and  C_19 
    6  A    between atoms: C_22  and  N_23 
       I    between atoms: N_23  and  C_25 
    7  A    between atoms: C_25  and  C_27 
    8  A    between atoms: C_27  and  N_28 

>  <TORSDO>
F 8

$$$$
resistance_project/docking/5319283d3047ac55/Q9UM73_WT/docked/molecule_0009_out.pdbqt
 OpenBabel09232609193D

 74 78  0  0  1  0  0  0  0  0999 V2000
   34.9870   44.6960    6.8930 C   0  0  0  0  0  0  0  0  0  0  0  0
   35.6090   44.5870    5.7700 N   0  0  0  0  0  0  0  0  0  0  0  0
   35.6970   43.6520    5.3720 H   0  0  0  0  0  0  0  0  0  0  0  0
   34.6740   46.0870    7.3410 C   0  0  2  0  0  0  0  0  0  0  0  0
   34.8970   46.2490    8.8060 C   0  0  0  0  0  0  0  0  0  0  0  0
   33.6420   46.5700    9.4180 N   0  0  0  0  0  0  0  0  0  0  0  0
   35.9880   46.1330    9.4280 O   0  0  0  0  0  0  0  0  0  0  0  0
   32.6360   46.6260    8.4170 C   0  0  0  0  0  0  0  0  0  0  0  0
   33.4940   46.7310   10.4140 H   0  0  0  0  0  0  0  0  0  0  0  0
   33.2030   46.3520    7.1820 C   0  0  0  0  0  0  0  0  0  0  0  0
   31.2890   46.9010    8.5580 C   0  0  0  0  0  0  0  0  0  0  0  0
   32.3360   46.3720    6.1060 C   0  0  0  0  0  0  0  0  0  0  0  0
   30.9870   46.6460    6.2370 C   0  0  0  0  0  0  0  0  0  0  0  0
   30.4370   46.9170    7.4730 C   0  0  0  0  0  0  0  0  0  0  0  0
   29.0160   47.2000    7.5810 C   0  0  0  0  0  0  0  0  0  0  0  0
   28.2750   46.4060    8.1950 O   0  0  0  0  0  0  0  0  0  0  0  0
   28.5590   48.3740    6.9730 O   0  0  0  0  0  0  0  0  0  0  0  0
   27.3200   48.9310    7.4150 C   0  0  0  0  0  0  0  0  0  0  0  0
   34.5990   43.5620    7.7210 C   0  0  0  0  0  0  0  0  0  0  0  0
   33.2940   43.1070    7.7300 C   0  0  0  0  0  0  0  0  0  0  0  0
   32.9450   42.0410    8.5180 C   0  0  0  0  0  0  0  0  0  0  0  0
   33.8720   41.4160    9.3020 C   0  0  0  0  0  0  0  0  0  0  0  0
   35.1600   41.8770    9.2840 C   0  0  0  0  0  0  0  0  0  0  0  0
   35.5480   42.9440    8.5060 C   0  0  0  0  0  0  0  0  0  0  0  0
   36.1770   45.6540    5.0480 C   0  0  0  0  0  0  0  0  0  0  0  0
   35.5830   46.1550    3.8870 C   0  0  0  0  0  0  0  0  0  0  0  0
   36.1800   47.1980    3.2330 C   0  0  0  0  0  0  0  0  0  0  0  0
   37.3590   47.7800    3.6800 C   0  0  0  0  0  0  0  0  0  0  0  0
   37.9020   47.2480    4.8270 C   0  0  0  0  0  0  0  0  0  0  0  0
   37.3540   46.1970    5.5370 C   0  0  0  0  0  0  0  0  0  0  0  0
   37.9580   48.8880    2.9870 N   0  0  0  0  0  0  0  0  0  0  0  0
   38.7330   48.5660    1.8090 C   0  0  0  0  0  0  0  0  0  0  0  0
   37.7640   50.1930    3.4900 C   0  0  0  0  0  0  0  0  0  0  0  0
   38.1840   51.1440    2.7420 O   0  0  0  0  0  0  0  0  0  0  0  0
   37.1440   50.5620    4.7520 C   0  0  0  0  0  0  0  0  0  0  0  0
   35.7400   50.5030    4.8470 N   0  0  0  0  0  0  0  0  0  0  0  0
   34.9820   50.7730    3.6650 C   0  0  0  0  0  0  0  0  0  0  0  0
   33.8050   49.7950    3.6650 C   0  0  0  0  0  0  0  0  0  0  0  0
   32.9320   50.0670    4.8050 N   0  0  0  0  0  0  0  0  0  0  0  0
   32.3230   51.3800    4.6880 C   0  0  0  0  0  0  0  0  0  0  0  0
   33.7160   50.0300    6.0300 C   0  0  0  0  0  0  0  0  0  0  0  0
   35.1460   49.5900    5.7460 C   0  0  0  0  0  0  0  0  0  0  0  0
   35.2966   46.7358    6.7610 H   0  0  0  0  0  0  0  0  0  0  0  0
   30.9113   47.0992    9.4977 H   0  0  0  0  0  0  0  0  0  0  0  0
   32.7111   46.1741    5.1652 H   0  0  0  0  0  0  0  0  0  0  0  0
   30.3839   46.6478    5.3996 H   0  0  0  0  0  0  0  0  0  0  0  0
   27.1096   49.8199    6.8578 H   0  0  0  0  0  0  0  0  0  0  0  0
   27.3875   49.1701    8.4558 H   0  0  0  0  0  0  0  0  0  0  0  0
   26.5349   48.2202    7.2626 H   0  0  0  0  0  0  0  0  0  0  0  0
   32.5822   43.5699    7.1434 H   0  0  0  0  0  0  0  0  0  0  0  0
   31.9688   41.7064    8.5187 H   0  0  0  0  0  0  0  0  0  0  0  0
   33.6070   40.6139    9.8948 H   0  0  0  0  0  0  0  0  0  0  0  0
   35.8651   41.4084    9.8742 H   0  0  0  0  0  0  0  0  0  0  0  0
   36.5261   43.2733    8.5105 H   0  0  0  0  0  0  0  0  0  0  0  0
   34.7069   45.7445    3.5280 H   0  0  0  0  0  0  0  0  0  0  0  0
   35.7379   47.5657    2.3760 H   0  0  0  0  0  0  0  0  0  0  0  0
   38.7784   47.6623    5.1811 H   0  0  0  0  0  0  0  0  0  0  0  0
   37.8012   45.8329    6.3929 H   0  0  0  0  0  0  0  0  0  0  0  0
   39.1252   49.4658    1.3832 H   0  0  0  0  0  0  0  0  0  0  0  0
   38.1068   48.0760    1.0930 H   0  0  0  0  0  0  0  0  0  0  0  0
   39.5403   47.9179    2.0794 H   0  0  0  0  0  0  0  0  0  0  0  0
   37.4342   51.5696    4.9652 H   0  0  0  0  0  0  0  0  0  0  0  0
   37.4875   49.8203    5.4426 H   0  0  0  0  0  0  0  0  0  0  0  0
   34.6238   51.7812    3.6788 H   0  0  0  0  0  0  0  0  0  0  0  0
   35.5820   50.6535    2.7871 H   0  0  0  0  0  0  0  0  0  0  0  0
   34.1758   48.7936    3.7331 H   0  0  0  0  0  0  0  0  0  0  0  0
   33.2484   49.9138    2.7589 H   0  0  0  0  0  0  0  0  0  0  0  0
   31.7416   51.4248    3.7909 H   0  0  0  0  0  0  0  0  0  0  0  0
   33.0887   52.1266    4.6545 H   0  0  0  0  0  0  0  0  0  0  0  0
   31.6899   51.5561    5.5325 H   0  0  0  0  0  0  0  0  0  0  0  0
   33.2662   49.3402    6.7132 H   0  0  0  0  0  0  0  0  0  0  0  0
   33.7379   51.0130    6.4521 H   0  0  0  0  0  0  0  0  0  0  0  0
   35.7035   49.5720    6.6591 H   0  0  0  0  0  0  0  0  0  0  0  0
   35.1432   48.6103    5.3158 H   0  0  0  0  0  0  0  0  0  0  0  0
  1  4  1  0  0  0  0
  1 19  1  0  0  0  0
  2  1  2  0  0  0  0
  3  2  1  0  0  0  0
  4  5  1  0  0  0  0
  4 43  1  6  0  0  0
  5  6  1  0  0  0  0
  5  7  2  0  0  0  0
  6  9  1  0  0  0  0
  8 11  1  0  0  0  0
  8  6  1  0  0  0  0
 10  4  1  0  0  0  0
 10  8  2  0  0  0  0
 11 44  1  0  0  0  0
 12 13  2  0  0  0  0
 12 10  1  0  0  0  0
 12 45  1  0  0  0  0
 13 14  1  0  0  0  0
 13 46  1  0  0  0  0
 14 15  1  0  0  0  0
 14 11  2  0  0  0  0
 15 16  2  0  0  0  0
 17 18  1  0  0  0  0
 17 15  1  0  0  0  0
 18 47  1  0  0  0  0
 18 48  1  0  0  0  0
 18 49  1  0  0  0  0
 19 20  2  0  0  0  0
 19 24  1  0  0  0  0
 20 21  1  0  0  0  0
 20 50  1  0  0  0  0
 21 22  2  0  0  0  0
 21 51  1  0  0  0  0
 22 52  1  0  0  0  0
 23 22  1  0  0  0  0
 23 53  1  0  0  0  0
 24 23  2  0  0  0  0
 24 54  1  0  0  0  0
 25 30  1  0  0  0  0
 25  2  1  0  0  0  0
 26 25  2  0  0  0  0
 26 55  1  0  0  0  0
 27 28  2  0  0  0  0
 27 26  1  0  0  0  0
 27 56  1  0  0  0  0
 28 29  1  0  0  0  0
 29 30  2  0  0  0  0
 29 57  1  0  0  0  0
 30 58  1  0  0  0  0
 31 33  1  0  0  0  0
 31 28  1  0  0  0  0
 32 31  1  0  0  0  0
 32 59  1  0  0  0  0
 32 60  1  0  0  0  0
 32 61  1  0  0  0  0
 33 35  1  0  0  0  0
 34 33  2  0  0  0  0
 35 36  1  0  0  0  0
 35 62  1  0  0  0  0
 35 63  1  0  0  0  0
 36 42  1  0  0  0  0
 37 36  1  0  0  0  0
 37 64  1  0  0  0  0
 37 65  1  0  0  0  0
 38 37  1  0  0  0  0
 38 39  1  0  0  0  0
 38 66  1  0  0  0  0
 38 67  1  0  0  0  0
 39 41  1  0  0  0  0
 40 39  1  0  0  0  0
 40 68  1  0  0  0  0
 40 69  1  0  0  0  0
 40 70  1  0  0  0  0
 41 71  1  0  0  0  0
 41 72  1  0  0  0  0
 42 41  1  0  0  0  0
 42 73  1  0  0  0  0
 42 74  1  0  0  0  0
M  END
>  <REMARK>
 VINA RESULT:      -7.1      3.490      7.248
  8 active torsions:
  status: ('A' for Active; 'I' for Inactive)
    1  A    between atoms: O_2  and  C_3 
    2  A    between atoms: C_3  and  C_5 
    3  A    between atoms: C_15  and  C_16 
    4  A    between atoms: C_16  and  C_37 
    5  A    between atoms: N_17  and  C_19 
    6  A    between atoms: C_22  and  N_23 
       I    between atoms: N_23  and  C_25 
    7  A    between atoms: C_25  and  C_27 
    8  A    between atoms: C_27  and  N_28 

>  <TORSDO>
F 8

$$$$
resistance_project/docking/5319283d3047ac55/Q9UM73_WT/docked/molecule_0009_out.pdbqt
 OpenBabel09232609193D

 74 78  0  0  1  0  0  0  0  0999 V2000
   28.8810   51.7760    6.6590 C   0  0  0  0  0  0  0  0  0  0  0  0
   29.9850   51.6130    7.3020 N   0  0  0  0  0  0  0  0  0  0  0  0
   30.1820   52.2590    8.0660 H   0  0  0  0  0  0  0  0  0  0  0  0
   28.5090   50.6900    5.7010 C   0  0  2  0  0  0  0  0  0  0  0  0
   28.2350   51.2350    4.3400 C   0  0  0  0  0  0  0  0  0  0  0  0
   26.8660   50.9650    4.0170 N   0  0  0  0  0  0  0  0  0  0  0  0
   29.0460   51.8330    3.5830 O   0  0  0  0  0  0  0  0  0  0  0  0
   26.2590   50.2720    5.0960 C   0  0  0  0  0  0  0  0  0  0  0  0
   26.4020   51.2300    3.1480 H   0  0  0  0  0  0  0  0  0  0  0  0
   27.1920   50.0870    6.1050 C   0  0  0  0  0  0  0  0  0  0  0  0
   24.9590   49.8160    5.2120 C   0  0  0  0  0  0  0  0  0  0  0  0
   26.7390   49.4210    7.2280 C   0  0  0  0  0  0  0  0  0  0  0  0
   25.4410   48.9620    7.3520 C   0  0  0  0  0  0  0  0  0  0  0  0
   24.5220   49.1520    6.3390 C   0  0  0  0  0  0  0  0  0  0  0  0
   23.1650   48.6610    6.4980 C   0  0  0  0  0  0  0  0  0  0  0  0
   22.9670   47.4400    6.6610 O   0  0  0  0  0  0  0  0  0  0  0  0
   22.1410   49.6130    6.4540 O   0  0  0  0  0  0  0  0  0  0  0  0
   22.1550   50.6720    7.4130 C   0  0  0  0  0  0  0  0  0  0  0  0
   28.0140   52.9370    6.8110 C   0  0  0  0  0  0  0  0  0  0  0  0
   26.9350   52.9060    7.6750 C   0  0  0  0  0  0  0  0  0  0  0  0
   26.1280   54.0060    7.8030 C   0  0  0  0  0  0  0  0  0  0  0  0
   26.3730   55.1420    7.0870 C   0  0  0  0  0  0  0  0  0  0  0  0
   27.4430   55.1600    6.2360 C   0  0  0  0  0  0  0  0  0  0  0  0
   28.2760   54.0750    6.0800 C   0  0  0  0  0  0  0  0  0  0  0  0
   30.9420   50.6150    7.0350 C   0  0  0  0  0  0  0  0  0  0  0  0
   31.0180   49.4470    7.7960 C   0  0  0  0  0  0  0  0  0  0  0  0
   31.9660   48.5110    7.4830 C   0  0  0  0  0  0  0  0  0  0  0  0
   32.8600   48.6790    6.4340 C   0  0  0  0  0  0  0  0  0  0  0  0
   32.7430   49.8480    5.7170 C   0  0  0  0  0  0  0  0  0  0  0  0
   31.8100   50.8340    5.9780 C   0  0  0  0  0  0  0  0  0  0  0  0
   33.8360   47.6730    6.1110 N   0  0  0  0  0  0  0  0  0  0  0  0
   33.4250   46.6620    5.1640 C   0  0  0  0  0  0  0  0  0  0  0  0
   35.1030   47.7290    6.7310 C   0  0  0  0  0  0  0  0  0  0  0  0
   35.9760   46.9050    6.2820 O   0  0  0  0  0  0  0  0  0  0  0  0
   35.5150   48.6130    7.8090 C   0  0  0  0  0  0  0  0  0  0  0  0
   36.3490   49.7030    7.4950 N   0  0  0  0  0  0  0  0  0  0  0  0
   37.7440   49.5770    7.7880 C   0  0  0  0  0  0  0  0  0  0  0  0
   38.4970   50.2370    6.6300 C   0  0  0  0  0  0  0  0  0  0  0  0
   38.1940   51.6660    6.5890 N   0  0  0  0  0  0  0  0  0  0  0  0
   38.6880   52.3330    7.7800 C   0  0  0  0  0  0  0  0  0  0  0  0
   36.7530   51.8510    6.5220 C   0  0  0  0  0  0  0  0  0  0  0  0
   36.0410   50.5120    6.3800 C   0  0  0  0  0  0  0  0  0  0  0  0
   29.3235   49.9961    5.7042 H   0  0  0  0  0  0  0  0  0  0  0  0
   24.2987   49.9766    4.4353 H   0  0  0  0  0  0  0  0  0  0  0  0
   27.3971   49.2596    8.0064 H   0  0  0  0  0  0  0  0  0  0  0  0
   25.1549   48.4707    8.2133 H   0  0  0  0  0  0  0  0  0  0  0  0
   21.3134   51.3122    7.2497 H   0  0  0  0  0  0  0  0  0  0  0  0
   23.0580   51.2363    7.3081 H   0  0  0  0  0  0  0  0  0  0  0  0
   22.1041   50.2606    8.3994 H   0  0  0  0  0  0  0  0  0  0  0  0
   26.7374   52.0544    8.2235 H   0  0  0  0  0  0  0  0  0  0  0  0
   25.3241   53.9752    8.4494 H   0  0  0  0  0  0  0  0  0  0  0  0
   25.7639   55.9692    7.1858 H   0  0  0  0  0  0  0  0  0  0  0  0
   27.6327   56.0162    5.6920 H   0  0  0  0  0  0  0  0  0  0  0  0
   29.0775   54.1132    5.4310 H   0  0  0  0  0  0  0  0  0  0  0  0
   30.3688   49.2917    8.5830 H   0  0  0  0  0  0  0  0  0  0  0  0
   32.0183   47.6486    8.0474 H   0  0  0  0  0  0  0  0  0  0  0  0
   33.3956   49.9985    4.9318 H   0  0  0  0  0  0  0  0  0  0  0  0
   31.7623   51.6948    5.4107 H   0  0  0  0  0  0  0  0  0  0  0  0
   32.4203   46.8545    4.8503 H   0  0  0  0  0  0  0  0  0  0  0  0
   33.4759   45.6984    5.6264 H   0  0  0  0  0  0  0  0  0  0  0  0
   34.0745   46.6844    4.3140 H   0  0  0  0  0  0  0  0  0  0  0  0
   36.0329   48.0147    8.5292 H   0  0  0  0  0  0  0  0  0  0  0  0
   34.6044   49.0644    8.1437 H   0  0  0  0  0  0  0  0  0  0  0  0
   37.9740   50.0728    8.7079 H   0  0  0  0  0  0  0  0  0  0  0  0
   38.0242   48.5498    7.8941 H   0  0  0  0  0  0  0  0  0  0  0  0
   39.5493   50.1014    6.7682 H   0  0  0  0  0  0  0  0  0  0  0  0
   38.1917   49.7859    5.7090 H   0  0  0  0  0  0  0  0  0  0  0  0
   38.4549   53.3760    7.7273 H   0  0  0  0  0  0  0  0  0  0  0  0
   39.7486   52.2074    7.8451 H   0  0  0  0  0  0  0  0  0  0  0  0
   38.2246   51.9072    8.6454 H   0  0  0  0  0  0  0  0  0  0  0  0
   36.4193   52.3324    7.4174 H   0  0  0  0  0  0  0  0  0  0  0  0
   36.5242   52.4530    5.6675 H   0  0  0  0  0  0  0  0  0  0  0  0
   36.3672   50.0262    5.4842 H   0  0  0  0  0  0  0  0  0  0  0  0
   34.9839   50.6700    6.3310 H   0  0  0  0  0  0  0  0  0  0  0  0
  1 19  1  0  0  0  0
  1  2  2  0  0  0  0
  2  3  1  0  0  0  0
  4 10  1  0  0  0  0
  4  1  1  0  0  0  0
  4 43  1  6  0  0  0
  5  4  1  0  0  0  0
  6  5  1  0  0  0  0
  6  8  1  0  0  0  0
  7  5  2  0  0  0  0
  8 11  2  0  0  0  0
  8 10  1  0  0  0  0
  9  6  1  0  0  0  0
 10 12  2  0  0  0  0
 11 14  1  0  0  0  0
 11 44  1  0  0  0  0
 12 13  1  0  0  0  0
 12 45  1  0  0  0  0
 13 46  1  0  0  0  0
 14 15  1  0  0  0  0
 14 13  2  0  0  0  0
 15 16  2  0  0  0  0
 17 15  1  0  0  0  0
 17 18  1  0  0  0  0
 18 47  1  0  0  0  0
 18 48  1  0  0  0  0
 18 49  1  0  0  0  0
 19 20  2  0  0  0  0
 20 21  1  0  0  0  0
 20 50  1  0  0  0  0
 21 51  1  0  0  0  0
 22 21  2  0  0  0  0
 22 52  1  0  0  0  0
 23 22  1  0  0  0  0
 23 53  1  0  0  0  0
 24 23  2  0  0  0  0
 24 19  1  0  0  0  0
 24 54  1  0  0  0  0
 25  2  1  0  0  0  0
 25 26  2  0  0  0  0
 26 55  1  0  0  0  0
 27 26  1  0  0  0  0
 27 56  1  0  0  0  0
 28 27  2  0  0  0  0
 29 30  2  0  0  0  0
 29 28  1  0  0  0  0
 29 57  1  0  0  0  0
 30 25  1  0  0  0  0
 30 58  1  0  0  0  0
 31 28  1  0  0  0  0
 31 33  1  0  0  0  0
 32 31  1  0  0  0  0
 32 59  1  0  0  0  0
 32 60  1  0  0  0  0
 32 61  1  0  0  0  0
 33 35  1  0  0  0  0
 34 33  2  0  0  0  0
 35 62  1  0  0  0  0
 35 63  1  0  0  0  0
 36 37  1  0  0  0  0
 36 35  1  0  0  0  0
 37 64  1  0  0  0  0
 37 65  1  0  0  0  0
 38 37  1  0  0  0  0
 38 66  1  0  0  0  0
 38 67  1  0  0  0  0
 39 38  1  0  0  0  0
 39 40  1  0  0  0  0
 40 68  1  0  0  0  0
 40 69  1  0  0  0  0
 40 70  1  0  0  0  0
 41 39  1  0  0  0  0
 41 71  1  0  0  0  0
 41 72  1  0  0  0  0
 42 41  1  0  0  0  0
 42 36  1  0  0  0  0
 42 73  1  0  0  0  0
 42 74  1  0  0  0  0
M  END
>  <REMARK>
 VINA RESULT:      -7.0      4.309     10.385
  8 active torsions:
  status: ('A' for Active; 'I' for Inactive)
    1  A    between atoms: O_2  and  C_3 
    2  A    between atoms: C_3  and  C_5 
    3  A    between atoms: C_15  and  C_16 
    4  A    between atoms: C_16  and  C_37 
    5  A    between atoms: N_17  and  C_19 
    6  A    between atoms: C_22  and  N_23 
       I    between atoms: N_23  and  C_25 
    7  A    between atoms: C_25  and  C_27 
    8  A    between atoms: C_27  and  N_28 

>  <TORSDO>
F 8

$$$$
resistance_project/docking/5319283d3047ac55/Q9UM73_WT/docked/molecule_0009_out.pdbqt
 OpenBabel09232609193D

 74 78  0  0  1  0  0  0  0  0999 V2000
   35.0290   47.6030    5.8240 C   0  0  0  0  0  0  0  0  0  0  0  0
   35.0570   48.2570    4.7150 N   0  0  0  0  0  0  0  0  0  0  0  0
   35.5210   47.8140    3.9220 H   0  0  0  0  0  0  0  0  0  0  0  0
   34.1570   48.1660    6.8990 C   0  0  2  0  0  0  0  0  0  0  0  0
   34.8550   48.1740    8.2180 C   0  0  0  0  0  0  0  0  0  0  0  0
   34.1310   47.3210    9.1120 N   0  0  0  0  0  0  0  0  0  0  0  0
   35.9000   48.8110    8.5220 O   0  0  0  0  0  0  0  0  0  0  0  0
   33.0080   46.7780    8.4340 C   0  0  0  0  0  0  0  0  0  0  0  0
   34.3840   47.1330   10.0820 H   0  0  0  0  0  0  0  0  0  0  0  0
   32.9850   47.2540    7.1320 C   0  0  0  0  0  0  0  0  0  0  0  0
   32.0430   45.9120    8.9120 C   0  0  0  0  0  0  0  0  0  0  0  0
   31.9390   46.8070    6.3480 C   0  0  0  0  0  0  0  0  0  0  0  0
   30.9690   45.9400    6.8180 C   0  0  0  0  0  0  0  0  0  0  0  0
   31.0050   45.4750    8.1160 C   0  0  0  0  0  0  0  0  0  0  0  0
   29.9740   44.5640    8.5830 C   0  0  0  0  0  0  0  0  0  0  0  0
   30.2770   43.3910    8.8790 O   0  0  0  0  0  0  0  0  0  0  0  0
   28.6740   45.0740    8.6690 O   0  0  0  0  0  0  0  0  0  0  0  0
   28.4050   46.0860    9.6410 C   0  0  0  0  0  0  0  0  0  0  0  0
   35.7920   46.3870    6.0720 C   0  0  0  0  0  0  0  0  0  0  0  0
   37.1230   46.4490    6.4390 C   0  0  0  0  0  0  0  0  0  0  0  0
   37.8260   45.2940    6.6640 C   0  0  0  0  0  0  0  0  0  0  0  0
   37.2300   44.0730    6.5300 C   0  0  0  0  0  0  0  0  0  0  0  0
   35.9130   44.0260    6.1650 C   0  0  0  0  0  0  0  0  0  0  0  0
   35.1740   45.1640    5.9310 C   0  0  0  0  0  0  0  0  0  0  0  0
   34.5010   49.5340    4.5080 C   0  0  0  0  0  0  0  0  0  0  0  0
   33.3520   49.7200    3.7370 C   0  0  0  0  0  0  0  0  0  0  0  0
   32.8560   50.9850    3.5790 C   0  0  0  0  0  0  0  0  0  0  0  0
   33.4540   52.0970    4.1580 C   0  0  0  0  0  0  0  0  0  0  0  0
   34.5830   51.8580    4.9070 C   0  0  0  0  0  0  0  0  0  0  0  0
   35.1380   50.6080    5.1080 C   0  0  0  0  0  0  0  0  0  0  0  0
   32.9030   53.4150    3.9940 N   0  0  0  0  0  0  0  0  0  0  0  0
   33.5570   54.2680    3.0270 C   0  0  0  0  0  0  0  0  0  0  0  0
   31.7880   53.7900    4.7750 C   0  0  0  0  0  0  0  0  0  0  0  0
   31.2480   54.9110    4.4680 O   0  0  0  0  0  0  0  0  0  0  0  0
   31.1970   53.0450    5.8750 C   0  0  0  0  0  0  0  0  0  0  0  0
   29.9310   52.4620    5.6800 N   0  0  0  0  0  0  0  0  0  0  0  0
   29.8350   51.0380    5.7680 C   0  0  0  0  0  0  0  0  0  0  0  0
   28.5160   50.7300    6.4820 C   0  0  0  0  0  0  0  0  0  0  0  0
   27.3910   51.1860    5.6690 N   0  0  0  0  0  0  0  0  0  0  0  0
   27.3190   50.4440    4.4240 C   0  0  0  0  0  0  0  0  0  0  0  0
   27.5640   52.5960    5.3570 C   0  0  0  0  0  0  0  0  0  0  0  0
   28.7750   53.1680    6.0830 C   0  0  0  0  0  0  0  0  0  0  0  0
   33.8839   49.1494    6.5778 H   0  0  0  0  0  0  0  0  0  0  0  0
   32.1005   45.5841    9.8888 H   0  0  0  0  0  0  0  0  0  0  0  0
   31.8788   47.1336    5.3709 H   0  0  0  0  0  0  0  0  0  0  0  0
   30.2086   45.6372    6.1894 H   0  0  0  0  0  0  0  0  0  0  0  0
   27.3752   46.3708    9.5837 H   0  0  0  0  0  0  0  0  0  0  0  0
   29.0221   46.9386    9.4484 H   0  0  0  0  0  0  0  0  0  0  0  0
   28.6162   45.7065   10.6189 H   0  0  0  0  0  0  0  0  0  0  0  0
   37.5875   47.3646    6.5436 H   0  0  0  0  0  0  0  0  0  0  0  0
   38.8194   45.3481    6.9384 H   0  0  0  0  0  0  0  0  0  0  0  0
   37.7615   43.2050    6.7004 H   0  0  0  0  0  0  0  0  0  0  0  0
   35.4573   43.1059    6.0614 H   0  0  0  0  0  0  0  0  0  0  0  0
   34.1811   45.1022    5.6566 H   0  0  0  0  0  0  0  0  0  0  0  0
   32.8837   48.9148    3.2927 H   0  0  0  0  0  0  0  0  0  0  0  0
   32.0063   51.1181    3.0087 H   0  0  0  0  0  0  0  0  0  0  0  0
   35.0471   52.6669    5.3488 H   0  0  0  0  0  0  0  0  0  0  0  0
   35.9881   50.4807    5.6790 H   0  0  0  0  0  0  0  0  0  0  0  0
   34.3713   53.7389    2.5777 H   0  0  0  0  0  0  0  0  0  0  0  0
   33.9279   55.1438    3.5171 H   0  0  0  0  0  0  0  0  0  0  0  0
   32.8558   54.5526    2.2705 H   0  0  0  0  0  0  0  0  0  0  0  0
   31.1126   53.7166    6.7037 H   0  0  0  0  0  0  0  0  0  0  0  0
   31.8537   52.2117    6.0135 H   0  0  0  0  0  0  0  0  0  0  0  0
   30.6581   50.6467    6.3287 H   0  0  0  0  0  0  0  0  0  0  0  0
   29.8612   50.5894    4.7969 H   0  0  0  0  0  0  0  0  0  0  0  0
   28.4356   49.6746    6.6386 H   0  0  0  0  0  0  0  0  0  0  0  0
   28.4985   51.2382    7.4235 H   0  0  0  0  0  0  0  0  0  0  0  0
   26.4891   50.7951    3.8470 H   0  0  0  0  0  0  0  0  0  0  0  0
   27.1910   49.4031    4.6361 H   0  0  0  0  0  0  0  0  0  0  0  0
   28.2238   50.5867    3.8709 H   0  0  0  0  0  0  0  0  0  0  0  0
   26.6887   53.1319    5.6595 H   0  0  0  0  0  0  0  0  0  0  0  0
   27.7178   52.6969    4.3029 H   0  0  0  0  0  0  0  0  0  0  0  0
   28.6416   53.0640    7.1395 H   0  0  0  0  0  0  0  0  0  0  0  0
   28.8833   54.2049    5.8423 H   0  0  0  0  0  0  0  0  0  0  0  0
  1 19  1  0  0  0  0
  1  4  1  0  0  0  0
  2  1  2  0  0  0  0
  3  2  1  0  0  0  0
  4 10  1  0  0  0  0
  4  5  1  0  0  0  0
  4 43  1  6  0  0  0
  5  7  2  0  0  0  0
  5  6  1  0  0  0  0
  6  9  1  0  0  0  0
  8 11  1  0  0  0  0
  8  6  1  0  0  0  0
 10  8  2  0  0  0  0
 11 44  1  0  0  0  0
 12 13  2  0  0  0  0
 12 10  1  0  0  0  0
 12 45  1  0  0  0  0
 13 14  1  0  0  0  0
 13 46  1  0  0  0  0
 14 15  1  0  0  0  0
 14 11  2  0  0  0  0
 15 17  1  0  0  0  0
 15 16  2  0  0  0  0
 17 18  1  0  0  0  0
 18 47  1  0  0  0  0
 18 48  1  0  0  0  0
 18 49  1  0  0  0  0
 19 20  1  0  0  0  0
 20 21  2  0  0  0  0
 20 50  1  0  0  0  0
 21 51  1  0  0  0  0
 22 21  1  0  0  0  0
 22 52  1  0  0  0  0
 23 22  2  0  0  0  0
 23 53  1  0  0  0  0
 24 19  2  0  0  0  0
 24 23  1  0  0  0  0
 24 54  1  0  0  0  0
 25  2  1  0  0  0  0
 25 30  2  0  0  0  0
 26 25  1  0  0  0  0
 26 55  1  0  0  0  0
 27 26  2  0  0  0  0
 27 28  1  0  0  0  0
 27 56  1  0  0  0  0
 28 29  2  0  0  0  0
 29 30  1  0  0  0  0
 29 57  1  0  0  0  0
 30 58  1  0  0  0  0
 31 28  1  0  0  0  0
 31 33  1  0  0  0  0
 32 31  1  0  0  0  0
 32 59  1  0  0  0  0
 32 60  1  0  0  0  0
 32 61  1  0  0  0  0
 33 35  1  0  0  0  0
 34 33  2  0  0  0  0
 35 62  1  0  0  0  0
 35 63  1  0  0  0  0
 36 37  1  0  0  0  0
 36 35  1  0  0  0  0
 36 42  1  0  0  0  0
 37 38  1  0  0  0  0
 37 64  1  0  0  0  0
 37 65  1  0  0  0  0
 38 66  1  0  0  0  0
 38 67  1  0  0  0  0
 39 38  1  0  0  0  0
 40 39  1  0  0  0  0
 40 68  1  0  0  0  0
 40 69  1  0  0  0  0
 40 70  1  0  0  0  0
 41 39  1  0  0  0  0
 41 42  1  0  0  0  0
 41 71  1  0  0  0  0
 41 72  1  0  0  0  0
 42 73  1  0  0  0  0
 42 74  1  0  0  0  0
M  END
>  <REMARK>
 VINA RESULT:      -6.9      3.103      5.108
  8 active torsions:
  status: ('A' for Active; 'I' for Inactive)
    1  A    between atoms: O_2  and  C_3 
    2  A    between atoms: C_3  and  C_5 
    3  A    between atoms: C_15  and  C_16 
    4  A    between atoms: C_16  and  C_37 
    5  A    between atoms: N_17  and  C_19 
    6  A    between atoms: C_22  and  N_23 
       I    between atoms: N_23  and  C_25 
    7  A    between atoms: C_25  and  C_27 
    8  A    between atoms: C_27  and  N_28 

>  <TORSDO>
F 8

$$$$
