resistance_project/docking/5319283d3047ac55/Q9UM73_WT/docked/molecule_0006_out.pdbqt
 OpenBabel09232609193D

 51 55  0  0  1  0  0  0  0  0999 V2000
   27.7800   48.7930    7.6150 C   0  0  0  0  0  0  0  0  0  0  0  0
   27.5190   47.7230    8.4150 C   0  0  0  0  0  0  0  0  0  0  0  0
   28.4130   46.6540    8.5990 C   0  0  0  0  0  0  0  0  0  0  0  0
   29.6190   46.6930    7.9330 C   0  0  0  0  0  0  0  0  0  0  0  0
   29.8420   47.7830    7.1410 C   0  0  0  0  0  0  0  0  0  0  0  0
   28.9860   48.8270    6.9520 C   0  0  0  0  0  0  0  0  0  0  0  0
   30.6140   45.5890    8.0860 C   0  0  0  0  0  0  0  0  0  0  0  0
   30.1630   44.5970    8.9390 C   0  0  0  0  0  0  0  0  0  0  0  0
   28.8750   44.5190    9.6720 C   0  0  0  0  0  0  0  0  0  0  0  0
   27.9540   45.6020    9.4930 C   0  0  0  0  0  0  0  0  0  0  0  0
   31.5280   43.3720    8.9680 S   0  0  0  0  0  0  0  0  0  0  0  0
   32.5560   44.3010    7.8470 C   0  0  0  0  0  0  0  0  0  0  0  0
   31.8230   45.4370    7.5360 C   0  0  0  0  0  0  0  0  0  0  0  0
   32.5520   46.2620    6.6380 C   0  0  1  0  0  0  0  0  0  0  0  0
   32.0980   47.4720    6.1330 N   0  0  0  0  0  0  0  0  0  0  0  0
   33.7880   45.8690    6.2240 N   0  0  0  0  0  0  0  0  0  0  0  0
   34.2830   46.4850    5.5790 H   0  0  0  0  0  0  0  0  0  0  0  0
   34.4040   44.7470    6.5880 C   0  0  0  0  0  0  0  0  0  0  0  0
   33.7220   43.9410    7.4490 N   0  0  0  0  0  0  0  0  0  0  0  0
   34.1310   43.0640    7.7730 H   0  0  0  0  0  0  0  0  0  0  0  0
   26.8310   49.8410    7.4730 N   0  0  0  0  0  0  0  0  0  0  0  0
   25.4920   49.5050    7.1170 C   0  0  0  0  0  0  0  0  0  0  0  0
   24.5720   50.6040    7.0280 N   0  0  0  0  0  0  0  0  0  0  0  0
   25.1400   48.3160    6.8950 O   0  0  0  0  0  0  0  0  0  0  0  0
   24.8780   51.5460    7.2750 H   0  0  0  0  0  0  0  0  0  0  0  0
   27.1020   50.8130    7.6220 H   0  0  0  0  0  0  0  0  0  0  0  0
   23.2340   50.3830    6.5980 C   0  0  0  0  0  0  0  0  0  0  0  0
   22.9890   50.4290    5.2440 C   0  0  0  0  0  0  0  0  0  0  0  0
   21.6940   50.2150    4.8220 C   0  0  0  0  0  0  0  0  0  0  0  0
   20.6830   49.9620    5.7270 C   0  0  0  0  0  0  0  0  0  0  0  0
   20.9750   49.9240    7.0750 C   0  0  0  0  0  0  0  0  0  0  0  0
   22.2530   50.1330    7.5400 C   0  0  0  0  0  0  0  0  0  0  0  0
   19.8240   49.6460    8.0000 C   0  0  0  0  0  0  0  0  0  0  0  0
   19.9210   48.2470    8.5630 C   0  0  0  0  0  0  0  0  0  0  0  0
   26.6158   47.6951    8.9134 H   0  0  0  0  0  0  0  0  0  0  0  0
   30.7427   47.8198    6.6386 H   0  0  0  0  0  0  0  0  0  0  0  0
   28.7736   48.8807    5.9047 H   0  0  0  0  0  0  0  0  0  0  0  0
   29.1017   44.4582   10.7159 H   0  0  0  0  0  0  0  0  0  0  0  0
   27.0354   45.6334    9.9623 H   0  0  0  0  0  0  0  0  0  0  0  0
   32.8040   47.8677    5.5123 H   0  0  0  0  0  0  0  0  0  0  0  0
   31.9222   48.1173    6.9031 H   0  0  0  0  0  0  0  0  0  0  0  0
   35.3274   45.0180    7.0558 H   0  0  0  0  0  0  0  0  0  0  0  0
   23.7471   50.6168    4.5695 H   0  0  0  0  0  0  0  0  0  0  0  0
   21.4771   50.2444    3.8135 H   0  0  0  0  0  0  0  0  0  0  0  0
   19.7177   49.8027    5.3985 H   0  0  0  0  0  0  0  0  0  0  0  0
   22.4701   50.1044    8.5485 H   0  0  0  0  0  0  0  0  0  0  0  0
   18.9061   49.7446    7.4590 H   0  0  0  0  0  0  0  0  0  0  0  0
   19.8538   50.3463    8.8084 H   0  0  0  0  0  0  0  0  0  0  0  0
   19.8921   47.5376    7.7625 H   0  0  0  0  0  0  0  0  0  0  0  0
   19.0991   48.0712    9.2251 H   0  0  0  0  0  0  0  0  0  0  0  0
   20.8405   48.1416    9.1000 H   0  0  0  0  0  0  0  0  0  0  0  0
  1  2  2  0  0  0  0
  2  3  1  0  0  0  0
  2 35  1  0  0  0  0
  3 10  2  0  0  0  0
  4  7  1  0  0  0  0
  4  3  1  0  0  0  0
  5  4  2  0  0  0  0
  5 36  1  0  0  0  0
  6  5  1  0  0  0  0
  6  1  1  0  0  0  0
  6 37  1  0  0  0  0
  7  8  2  0  0  0  0
  8 11  1  0  0  0  0
  8  9  1  0  0  0  0
  9 38  1  0  0  0  0
 10  9  1  0  0  0  0
 10 39  1  0  0  0  0
 12 11  1  0  0  0  0
 13 12  2  0  0  0  0
 13  7  1  0  0  0  0
 14 15  1  1  0  0  0
 14 13  1  0  0  0  0
 15 40  1  0  0  0  0
 15 41  1  0  0  0  0
 16 18  1  0  0  0  0
 16 14  1  0  0  0  0
 17 16  1  0  0  0  0
 18 19  1  0  0  0  0
 18 42  1  0  0  0  0
 19 20  1  0  0  0  0
 19 12  1  0  0  0  0
 21  1  1  0  0  0  0
 21 26  1  0  0  0  0
 22 21  1  0  0  0  0
 23 22  1  0  0  0  0
 23 25  1  0  0  0  0
 24 22  2  0  0  0  0
 27 23  1  0  0  0  0
 27 32  2  0  0  0  0
 28 27  1  0  0  0  0
 28 43  1  0  0  0  0
 29 28  2  0  0  0  0
 29 30  1  0  0  0  0
 29 44  1  0  0  0  0
 30 31  2  0  0  0  0
 30 45  1  0  0  0  0
 31 32  1  0  0  0  0
 31 33  1  0  0  0  0
 32 46  1  0  0  0  0
 33 34  1  0  0  0  0
 33 47  1  0  0  0  0
 33 48  1  0  0  0  0
 34 49  1  0  0  0  0
 34 50  1  0  0  0  0
 34 51  1  0  0  0  0
M  END
>  <MODEL>
1

>  <REMARK>
 VINA RESULT:      -9.0      0.000      0.000
  3 active torsions:
  status: ('A' for Active; 'I' for Inactive)
    1  A    between atoms: C_2  and  C_3 
    2  A    between atoms: C_7  and  N_8 
       I    between atoms: N_8  and  C_10 
       I    between atoms: C_10  and  N_12 
    3  A    between atoms: N_12  and  C_14 

>  <TORSDO>
F 3

$$$$
resistance_project/docking/5319283d3047ac55/Q9UM73_WT/docked/molecule_0006_out.pdbqt
 OpenBabel09232609193D

 51 55  0  0  1  0  0  0  0  0999 V2000
   27.6380   47.8050    8.1720 C   0  0  0  0  0  0  0  0  0  0  0  0
   28.1250   48.7660    7.3410 C   0  0  0  0  0  0  0  0  0  0  0  0
   27.3150   49.5520    6.5020 C   0  0  0  0  0  0  0  0  0  0  0  0
   25.9540   49.3370    6.5250 C   0  0  0  0  0  0  0  0  0  0  0  0
   25.5050   48.3640    7.3720 C   0  0  0  0  0  0  0  0  0  0  0  0
   26.2770   47.5930    8.1910 C   0  0  0  0  0  0  0  0  0  0  0  0
   25.0380   50.1390    5.6590 C   0  0  0  0  0  0  0  0  0  0  0  0
   25.7250   51.0620    4.8900 C   0  0  0  0  0  0  0  0  0  0  0  0
   27.1840   51.3230    4.8380 C   0  0  0  0  0  0  0  0  0  0  0  0
   28.0210   50.5290    5.6870 C   0  0  0  0  0  0  0  0  0  0  0  0
   24.4140   51.9110    3.9280 S   0  0  0  0  0  0  0  0  0  0  0  0
   23.0910   50.9550    4.6440 C   0  0  0  0  0  0  0  0  0  0  0  0
   23.7080   50.0870    5.5330 C   0  0  0  0  0  0  0  0  0  0  0  0
   22.7390   49.2670    6.1710 C   0  0  2  0  0  0  0  0  0  0  0  0
   23.0300   48.2920    7.1160 N   0  0  0  0  0  0  0  0  0  0  0  0
   21.4230   49.4200    5.8560 N   0  0  0  0  0  0  0  0  0  0  0  0
   20.7550   48.8140    6.3330 H   0  0  0  0  0  0  0  0  0  0  0  0
   20.9350   50.2930    4.9790 C   0  0  0  0  0  0  0  0  0  0  0  0
   21.8480   51.0900    4.3560 N   0  0  0  0  0  0  0  0  0  0  0  0
   21.5470   51.7840    3.6710 H   0  0  0  0  0  0  0  0  0  0  0  0
   28.5130   47.0460    8.9940 N   0  0  0  0  0  0  0  0  0  0  0  0
   29.3840   46.1020    8.3740 C   0  0  0  0  0  0  0  0  0  0  0  0
   30.2710   45.3950    9.2540 N   0  0  0  0  0  0  0  0  0  0  0  0
   29.3740   45.9040    7.1300 O   0  0  0  0  0  0  0  0  0  0  0  0
   30.2940   45.6260   10.2480 H   0  0  0  0  0  0  0  0  0  0  0  0
   28.5170   47.1710   10.0060 H   0  0  0  0  0  0  0  0  0  0  0  0
   31.1190   44.3730    8.7430 C   0  0  0  0  0  0  0  0  0  0  0  0
   30.6000   43.1000    8.6650 C   0  0  0  0  0  0  0  0  0  0  0  0
   31.4180   42.1060    8.1710 C   0  0  0  0  0  0  0  0  0  0  0  0
   32.7090   42.3820    7.7680 C   0  0  0  0  0  0  0  0  0  0  0  0
   33.1870   43.6720    7.8640 C   0  0  0  0  0  0  0  0  0  0  0  0
   32.4060   44.6950    8.3520 C   0  0  0  0  0  0  0  0  0  0  0  0
   34.6020   43.8970    7.4090 C   0  0  0  0  0  0  0  0  0  0  0  0
   35.5660   43.1020    8.2580 C   0  0  0  0  0  0  0  0  0  0  0  0
   29.1443   48.9269    7.3255 H   0  0  0  0  0  0  0  0  0  0  0  0
   24.4869   48.1965    7.3945 H   0  0  0  0  0  0  0  0  0  0  0  0
   25.8563   46.8764    8.8030 H   0  0  0  0  0  0  0  0  0  0  0  0
   27.5794   52.0459    4.2166 H   0  0  0  0  0  0  0  0  0  0  0  0
   29.0464   50.6413    5.7182 H   0  0  0  0  0  0  0  0  0  0  0  0
   24.0371   48.2628    7.2753 H   0  0  0  0  0  0  0  0  0  0  0  0
   22.7130   47.3839    6.7764 H   0  0  0  0  0  0  0  0  0  0  0  0
   20.4132   49.7419    4.2247 H   0  0  0  0  0  0  0  0  0  0  0  0
   29.6337   42.8972    8.9654 H   0  0  0  0  0  0  0  0  0  0  0  0
   31.0595   41.1408    8.1015 H   0  0  0  0  0  0  0  0  0  0  0  0
   33.3111   41.6298    7.3982 H   0  0  0  0  0  0  0  0  0  0  0  0
   32.7650   45.6599    8.4230 H   0  0  0  0  0  0  0  0  0  0  0  0
   34.8366   44.9377    7.4913 H   0  0  0  0  0  0  0  0  0  0  0  0
   34.6926   43.5766    6.3921 H   0  0  0  0  0  0  0  0  0  0  0  0
   35.4841   43.4143    9.2781 H   0  0  0  0  0  0  0  0  0  0  0  0
   36.5653   43.2679    7.9134 H   0  0  0  0  0  0  0  0  0  0  0  0
   35.3314   42.0607    8.1839 H   0  0  0  0  0  0  0  0  0  0  0  0
  1  6  1  0  0  0  0
  1 21  1  0  0  0  0
  2  1  2  0  0  0  0
  2 35  1  0  0  0  0
  3  4  2  0  0  0  0
  3  2  1  0  0  0  0
  4  5  1  0  0  0  0
  5  6  2  0  0  0  0
  5 36  1  0  0  0  0
  6 37  1  0  0  0  0
  7  4  1  0  0  0  0
  8  7  2  0  0  0  0
  9  8  1  0  0  0  0
  9 10  2  0  0  0  0
  9 38  1  0  0  0  0
 10  3  1  0  0  0  0
 10 39  1  0  0  0  0
 11 12  1  0  0  0  0
 11  8  1  0  0  0  0
 12 13  2  0  0  0  0
 13  7  1  0  0  0  0
 13 14  1  0  0  0  0
 14 15  1  6  0  0  0
 15 40  1  0  0  0  0
 15 41  1  0  0  0  0
 16 14  1  0  0  0  0
 16 17  1  0  0  0  0
 18 16  1  0  0  0  0
 18 42  1  0  0  0  0
 19 12  1  0  0  0  0
 19 18  1  0  0  0  0
 20 19  1  0  0  0  0
 21 26  1  0  0  0  0
 22 21  1  0  0  0  0
 22 23  1  0  0  0  0
 23 25  1  0  0  0  0
 24 22  2  0  0  0  0
 27 23  1  0  0  0  0
 28 27  1  0  0  0  0
 28 43  1  0  0  0  0
 29 28  2  0  0  0  0
 29 44  1  0  0  0  0
 30 31  2  0  0  0  0
 30 29  1  0  0  0  0
 30 45  1  0  0  0  0
 31 32  1  0  0  0  0
 32 27  2  0  0  0  0
 32 46  1  0  0  0  0
 33 31  1  0  0  0  0
 33 34  1  0  0  0  0
 33 47  1  0  0  0  0
 33 48  1  0  0  0  0
 34 49  1  0  0  0  0
 34 50  1  0  0  0  0
 34 51  1  0  0  0  0
M  END
>  <REMARK>
 VINA RESULT:      -8.8      3.232     10.086
  3 active torsions:
  status: ('A' for Active; 'I' for Inactive)
    1  A    between atoms: C_2  and  C_3 
    2  A    between atoms: C_7  and  N_8 
       I    between atoms: N_8  and  C_10 
       I    between atoms: C_10  and  N_12 
    3  A    between atoms: N_12  and  C_14 

>  <TORSDO>
F 3

$$$$
resistance_project/docking/5319283d3047ac55/Q9UM73_WT/docked/molecule_0006_out.pdbqt
 OpenBabel09232609193D

 51 55  0  0  1  0  0  0  0  0999 V2000
   27.3810   48.2710    7.8800 C   0  0  0  0  0  0  0  0  0  0  0  0
   26.0460   48.0190    7.8120 C   0  0  0  0  0  0  0  0  0  0  0  0
   25.1700   48.6980    6.9470 C   0  0  0  0  0  0  0  0  0  0  0  0
   25.6930   49.6700    6.1220 C   0  0  0  0  0  0  0  0  0  0  0  0
   27.0380   49.8920    6.2200 C   0  0  0  0  0  0  0  0  0  0  0  0
   27.9000   49.2430    7.0540 C   0  0  0  0  0  0  0  0  0  0  0  0
   24.8160   50.4270    5.1790 C   0  0  0  0  0  0  0  0  0  0  0  0
   23.4950   50.0250    5.2610 C   0  0  0  0  0  0  0  0  0  0  0  0
   22.8940   48.9850    6.1330 C   0  0  0  0  0  0  0  0  0  0  0  0
   23.7760   48.2870    7.0200 C   0  0  0  0  0  0  0  0  0  0  0  0
   22.6270   51.0760    4.0340 S   0  0  0  0  0  0  0  0  0  0  0  0
   24.1050   51.9400    3.5380 C   0  0  0  0  0  0  0  0  0  0  0  0
   25.1220   51.3940    4.3080 C   0  0  0  0  0  0  0  0  0  0  0  0
   26.3620   52.0130    3.9950 C   0  0  2  0  0  0  0  0  0  0  0  0
   27.5750   51.6950    4.5890 N   0  0  0  0  0  0  0  0  0  0  0  0
   26.3990   52.9930    3.0500 N   0  0  0  0  0  0  0  0  0  0  0  0
   27.3050   53.4150    2.8500 H   0  0  0  0  0  0  0  0  0  0  0  0
   25.3520   53.4450    2.3640 C   0  0  0  0  0  0  0  0  0  0  0  0
   24.1520   52.8640    2.6490 N   0  0  0  0  0  0  0  0  0  0  0  0
   23.3060   53.1590    2.1630 H   0  0  0  0  0  0  0  0  0  0  0  0
   28.2120   47.5480    8.7780 N   0  0  0  0  0  0  0  0  0  0  0  0
   29.0970   46.5650    8.2450 C   0  0  0  0  0  0  0  0  0  0  0  0
   29.9380   45.8970    9.1980 N   0  0  0  0  0  0  0  0  0  0  0  0
   29.1380   46.3020    7.0140 O   0  0  0  0  0  0  0  0  0  0  0  0
   29.9210   46.1790   10.1790 H   0  0  0  0  0  0  0  0  0  0  0  0
   28.1740   47.7270    9.7810 H   0  0  0  0  0  0  0  0  0  0  0  0
   30.7950   44.8410    8.7780 C   0  0  0  0  0  0  0  0  0  0  0  0
   30.3010   43.5590    8.8480 C   0  0  0  0  0  0  0  0  0  0  0  0
   31.1270   42.5320    8.4420 C   0  0  0  0  0  0  0  0  0  0  0  0
   32.4030   42.7870    7.9820 C   0  0  0  0  0  0  0  0  0  0  0  0
   32.8570   44.0880    7.9280 C   0  0  0  0  0  0  0  0  0  0  0  0
   32.0660   45.1420    8.3240 C   0  0  0  0  0  0  0  0  0  0  0  0
   34.2570   44.2880    7.4180 C   0  0  0  0  0  0  0  0  0  0  0  0
   35.1970   43.2800    8.0360 C   0  0  0  0  0  0  0  0  0  0  0  0
   25.6550   47.2898    8.4288 H   0  0  0  0  0  0  0  0  0  0  0  0
   27.4385   50.6182    5.6058 H   0  0  0  0  0  0  0  0  0  0  0  0
   28.9061   49.4723    7.0657 H   0  0  0  0  0  0  0  0  0  0  0  0
   21.8843   48.7739    6.1016 H   0  0  0  0  0  0  0  0  0  0  0  0
   23.4477   47.5487    7.6620 H   0  0  0  0  0  0  0  0  0  0  0  0
   28.3113   52.2789    4.1923 H   0  0  0  0  0  0  0  0  0  0  0  0
   27.7904   50.7129    4.4175 H   0  0  0  0  0  0  0  0  0  0  0  0
   25.2619   54.4934    2.5581 H   0  0  0  0  0  0  0  0  0  0  0  0
   29.3461   43.3724    9.1921 H   0  0  0  0  0  0  0  0  0  0  0  0
   30.7861   41.5588    8.4827 H   0  0  0  0  0  0  0  0  0  0  0  0
   33.0124   42.0104    7.6809 H   0  0  0  0  0  0  0  0  0  0  0  0
   32.4067   46.1153    8.2839 H   0  0  0  0  0  0  0  0  0  0  0  0
   34.5851   45.2750    7.6692 H   0  0  0  0  0  0  0  0  0  0  0  0
   34.2594   44.1562    6.3562 H   0  0  0  0  0  0  0  0  0  0  0  0
   35.2027   43.4025    9.0989 H   0  0  0  0  0  0  0  0  0  0  0  0
   36.1848   43.4325    7.6541 H   0  0  0  0  0  0  0  0  0  0  0  0
   34.8694   42.2909    7.7928 H   0  0  0  0  0  0  0  0  0  0  0  0
  1 21  1  0  0  0  0
  2  1  2  0  0  0  0
  2 35  1  0  0  0  0
  3 10  1  0  0  0  0
  3  2  1  0  0  0  0
  4  5  1  0  0  0  0
  4  3  2  0  0  0  0
  5  6  2  0  0  0  0
  5 36  1  0  0  0  0
  6  1  1  0  0  0  0
  6 37  1  0  0  0  0
  7  8  2  0  0  0  0
  7  4  1  0  0  0  0
  8  9  1  0  0  0  0
  9 10  2  0  0  0  0
  9 38  1  0  0  0  0
 10 39  1  0  0  0  0
 11  8  1  0  0  0  0
 12 11  1  0  0  0  0
 12 13  2  0  0  0  0
 13  7  1  0  0  0  0
 14 13  1  0  0  0  0
 14 15  1  1  0  0  0
 15 40  1  0  0  0  0
 15 41  1  0  0  0  0
 16 14  1  0  0  0  0
 17 16  1  0  0  0  0
 18 19  1  0  0  0  0
 18 16  1  0  0  0  0
 18 42  1  0  0  0  0
 19 12  1  0  0  0  0
 20 19  1  0  0  0  0
 21 26  1  0  0  0  0
 22 21  1  0  0  0  0
 22 23  1  0  0  0  0
 23 25  1  0  0  0  0
 24 22  2  0  0  0  0
 27 28  1  0  0  0  0
 27 23  1  0  0  0  0
 28 43  1  0  0  0  0
 29 28  2  0  0  0  0
 29 44  1  0  0  0  0
 30 29  1  0  0  0  0
 30 45  1  0  0  0  0
 31 30  2  0  0  0  0
 31 32  1  0  0  0  0
 32 27  2  0  0  0  0
 32 46  1  0  0  0  0
 33 31  1  0  0  0  0
 33 34  1  0  0  0  0
 33 47  1  0  0  0  0
 33 48  1  0  0  0  0
 34 49  1  0  0  0  0
 34 50  1  0  0  0  0
 34 51  1  0  0  0  0
M  END
>  <REMARK>
 VINA RESULT:      -8.7      3.450      9.632
  3 active torsions:
  status: ('A' for Active; 'I' for Inactive)
    1  A    between atoms: C_2  and  C_3 
    2  A    between atoms: C_7  and  N_8 
       I    between atoms: N_8  and  C_10 
       I    between atoms: C_10  and  N_12 
    3  A    between atoms: N_12  and  C_14 

>  <TORSDO>
F 3

$$$$
resistance_project/docking/5319283d3047ac55/Q9UM73_WT/docked/molecule_0006_out.pdbqt
 OpenBabel09232609193D

 51 55  0  0  1  0  0  0  0  0999 V2000
   29.2240   46.4730    8.4500 C   0  0  0  0  0  0  0  0  0  0  0  0
   30.0950   46.8060    7.4590 C   0  0  0  0  0  0  0  0  0  0  0  0
   31.3470   46.1910    7.2860 C   0  0  0  0  0  0  0  0  0  0  0  0
   31.7110   45.1960    8.1680 C   0  0  0  0  0  0  0  0  0  0  0  0
   30.8080   44.8920    9.1480 C   0  0  0  0  0  0  0  0  0  0  0  0
   29.5910   45.4790    9.3290 C   0  0  0  0  0  0  0  0  0  0  0  0
   33.0270   44.5030    8.0390 C   0  0  0  0  0  0  0  0  0  0  0  0
   33.7660   44.9830    6.9720 C   0  0  0  0  0  0  0  0  0  0  0  0
   33.4100   46.0490    6.0020 C   0  0  0  0  0  0  0  0  0  0  0  0
   32.1370   46.6840    6.1680 C   0  0  0  0  0  0  0  0  0  0  0  0
   35.3130   43.9990    7.0150 S   0  0  0  0  0  0  0  0  0  0  0  0
   34.8220   43.0520    8.4430 C   0  0  0  0  0  0  0  0  0  0  0  0
   33.5620   43.5270    8.7800 C   0  0  0  0  0  0  0  0  0  0  0  0
   33.0650   42.8370    9.9180 C   0  0  1  0  0  0  0  0  0  0  0  0
   31.8320   43.0750   10.5080 N   0  0  0  0  0  0  0  0  0  0  0  0
   33.8260   41.8660   10.4950 N   0  0  0  0  0  0  0  0  0  0  0  0
   33.4380   41.3910   11.3100 H   0  0  0  0  0  0  0  0  0  0  0  0
   35.0340   41.4850   10.0860 C   0  0  0  0  0  0  0  0  0  0  0  0
   35.5300   42.1350    8.9950 N   0  0  0  0  0  0  0  0  0  0  0  0
   36.4490   41.8960    8.6240 H   0  0  0  0  0  0  0  0  0  0  0  0
   27.9720   47.1340    8.5680 N   0  0  0  0  0  0  0  0  0  0  0  0
   27.6740   48.1960    7.6630 C   0  0  0  0  0  0  0  0  0  0  0  0
   26.3780   48.7970    7.8080 N   0  0  0  0  0  0  0  0  0  0  0  0
   28.4970   48.5790    6.7910 O   0  0  0  0  0  0  0  0  0  0  0  0
   25.7140   48.4200    8.4850 H   0  0  0  0  0  0  0  0  0  0  0  0
   27.3010   46.8570    9.2850 H   0  0  0  0  0  0  0  0  0  0  0  0
   26.0180   49.9190    7.0100 C   0  0  0  0  0  0  0  0  0  0  0  0
   26.3850   51.1650    7.4660 C   0  0  0  0  0  0  0  0  0  0  0  0
   26.0390   52.2550    6.6960 C   0  0  0  0  0  0  0  0  0  0  0  0
   25.3500   52.0980    5.5100 C   0  0  0  0  0  0  0  0  0  0  0  0
   25.0030   50.8310    5.0910 C   0  0  0  0  0  0  0  0  0  0  0  0
   25.3280   49.7150    5.8290 C   0  0  0  0  0  0  0  0  0  0  0  0
   24.2540   50.7370    3.7920 C   0  0  0  0  0  0  0  0  0  0  0  0
   25.1760   50.3090    2.6740 C   0  0  0  0  0  0  0  0  0  0  0  0
   29.8215   47.5504    6.7987 H   0  0  0  0  0  0  0  0  0  0  0  0
   31.0722   44.1485    9.8132 H   0  0  0  0  0  0  0  0  0  0  0  0
   28.9668   45.1885   10.0978 H   0  0  0  0  0  0  0  0  0  0  0  0
   34.0520   46.3207    5.2410 H   0  0  0  0  0  0  0  0  0  0  0  0
   31.8052   47.4344    5.5420 H   0  0  0  0  0  0  0  0  0  0  0  0
   31.3491   43.8158    9.9996 H   0  0  0  0  0  0  0  0  0  0  0  0
   31.9685   43.3612   11.4774 H   0  0  0  0  0  0  0  0  0  0  0  0
   35.7166   41.6374   10.8958 H   0  0  0  0  0  0  0  0  0  0  0  0
   26.9007   51.2791    8.3526 H   0  0  0  0  0  0  0  0  0  0  0  0
   26.2990   53.2027    7.0110 H   0  0  0  0  0  0  0  0  0  0  0  0
   25.0969   52.9217    4.9421 H   0  0  0  0  0  0  0  0  0  0  0  0
   25.0679   48.7672    5.5144 H   0  0  0  0  0  0  0  0  0  0  0  0
   23.4663   50.0197    3.8918 H   0  0  0  0  0  0  0  0  0  0  0  0
   23.8514   51.7000    3.5564 H   0  0  0  0  0  0  0  0  0  0  0  0
   25.5854   49.3462    2.8982 H   0  0  0  0  0  0  0  0  0  0  0  0
   25.9697   51.0197    2.5744 H   0  0  0  0  0  0  0  0  0  0  0  0
   24.6258   50.2580    1.7577 H   0  0  0  0  0  0  0  0  0  0  0  0
  1 21  1  0  0  0  0
  1  6  1  0  0  0  0
  2  1  2  0  0  0  0
  2 35  1  0  0  0  0
  3  2  1  0  0  0  0
  3  4  2  0  0  0  0
  4  5  1  0  0  0  0
  5  6  2  0  0  0  0
  5 36  1  0  0  0  0
  6 37  1  0  0  0  0
  7  4  1  0  0  0  0
  7 13  1  0  0  0  0
  8 11  1  0  0  0  0
  8  7  2  0  0  0  0
  9 10  2  0  0  0  0
  9  8  1  0  0  0  0
  9 38  1  0  0  0  0
 10  3  1  0  0  0  0
 10 39  1  0  0  0  0
 11 12  1  0  0  0  0
 12 13  2  0  0  0  0
 12 19  1  0  0  0  0
 13 14  1  0  0  0  0
 14 16  1  0  0  0  0
 14 15  1  6  0  0  0
 15 40  1  0  0  0  0
 15 41  1  0  0  0  0
 16 17  1  0  0  0  0
 18 16  1  0  0  0  0
 18 42  1  0  0  0  0
 19 18  1  0  0  0  0
 20 19  1  0  0  0  0
 21 26  1  0  0  0  0
 22 23  1  0  0  0  0
 22 21  1  0  0  0  0
 23 25  1  0  0  0  0
 24 22  2  0  0  0  0
 27 28  1  0  0  0  0
 27 23  1  0  0  0  0
 28 43  1  0  0  0  0
 29 28  2  0  0  0  0
 29 44  1  0  0  0  0
 30 29  1  0  0  0  0
 30 45  1  0  0  0  0
 31 30  2  0  0  0  0
 31 32  1  0  0  0  0
 32 27  2  0  0  0  0
 32 46  1  0  0  0  0
 33 31  1  0  0  0  0
 33 47  1  0  0  0  0
 33 48  1  0  0  0  0
 34 33  1  0  0  0  0
 34 49  1  0  0  0  0
 34 50  1  0  0  0  0
 34 51  1  0  0  0  0
M  END
>  <REMARK>
 VINA RESULT:      -8.7      2.892      4.350
  3 active torsions:
  status: ('A' for Active; 'I' for Inactive)
    1  A    between atoms: C_2  and  C_3 
    2  A    between atoms: C_7  and  N_8 
       I    between atoms: N_8  and  C_10 
       I    between atoms: C_10  and  N_12 
    3  A    between atoms: N_12  and  C_14 

>  <TORSDO>
F 3

$$$$
resistance_project/docking/5319283d3047ac55/Q9UM73_WT/docked/molecule_0006_out.pdbqt
 OpenBabel09232609193D

 51 55  0  0  1  0  0  0  0  0999 V2000
   29.1620   47.3910    8.6420 C   0  0  0  0  0  0  0  0  0  0  0  0
   29.0790   46.0510    8.8610 C   0  0  0  0  0  0  0  0  0  0  0  0
   30.1420   45.1590    8.6320 C   0  0  0  0  0  0  0  0  0  0  0  0
   31.3320   45.6720    8.1610 C   0  0  0  0  0  0  0  0  0  0  0  0
   31.3730   47.0220    7.9550 C   0  0  0  0  0  0  0  0  0  0  0  0
   30.3520   47.8990    8.1720 C   0  0  0  0  0  0  0  0  0  0  0  0
   32.5000   44.7790    7.8990 C   0  0  0  0  0  0  0  0  0  0  0  0
   32.2160   43.4550    8.1820 C   0  0  0  0  0  0  0  0  0  0  0  0
   30.9520   42.8650    8.6890 C   0  0  0  0  0  0  0  0  0  0  0  0
   29.8610   43.7620    8.9260 C   0  0  0  0  0  0  0  0  0  0  0  0
   33.7720   42.5660    7.7890 S   0  0  0  0  0  0  0  0  0  0  0  0
   34.6380   44.0420    7.2890 C   0  0  0  0  0  0  0  0  0  0  0  0
   33.7230   45.0730    7.4480 C   0  0  0  0  0  0  0  0  0  0  0  0
   34.3110   46.3120    7.0750 C   0  0  1  0  0  0  0  0  0  0  0  0
   33.6610   47.5370    7.1180 N   0  0  0  0  0  0  0  0  0  0  0  0
   35.6010   46.3350    6.6410 N   0  0  0  0  0  0  0  0  0  0  0  0
   35.9900   47.2420    6.3810 H   0  0  0  0  0  0  0  0  0  0  0  0
   36.3970   45.2750    6.5250 C   0  0  0  0  0  0  0  0  0  0  0  0
   35.8530   44.0760    6.8780 N   0  0  0  0  0  0  0  0  0  0  0  0
   36.4040   43.2200    6.8160 H   0  0  0  0  0  0  0  0  0  0  0  0
   28.0480   48.2370    8.8950 N   0  0  0  0  0  0  0  0  0  0  0  0
   27.4120   48.8750    7.7890 C   0  0  0  0  0  0  0  0  0  0  0  0
   26.2700   49.6850    8.1050 N   0  0  0  0  0  0  0  0  0  0  0  0
   27.8290   48.7340    6.6090 O   0  0  0  0  0  0  0  0  0  0  0  0
   25.9240   49.7260    9.0640 H   0  0  0  0  0  0  0  0  0  0  0  0
   27.7110   48.3860    9.8460 H   0  0  0  0  0  0  0  0  0  0  0  0
   25.6170   50.4300    7.0820 C   0  0  0  0  0  0  0  0  0  0  0  0
   25.9850   51.7470    6.9270 C   0  0  0  0  0  0  0  0  0  0  0  0
   25.3560   52.4740    5.9380 C   0  0  0  0  0  0  0  0  0  0  0  0
   24.3940   51.8960    5.1340 C   0  0  0  0  0  0  0  0  0  0  0  0
   24.0580   50.5720    5.3250 C   0  0  0  0  0  0  0  0  0  0  0  0
   24.6600   49.8110    6.3010 C   0  0  0  0  0  0  0  0  0  0  0  0
   23.0020   50.0120    4.4140 C   0  0  0  0  0  0  0  0  0  0  0  0
   21.7340   50.8290    4.5040 C   0  0  0  0  0  0  0  0  0  0  0  0
   28.1880   45.6683    9.2142 H   0  0  0  0  0  0  0  0  0  0  0  0
   32.2598   47.4146    7.6021 H   0  0  0  0  0  0  0  0  0  0  0  0
   30.4672   48.9083    7.9903 H   0  0  0  0  0  0  0  0  0  0  0  0
   30.8631   41.8517    8.8633 H   0  0  0  0  0  0  0  0  0  0  0  0
   28.9454   43.4419    9.2784 H   0  0  0  0  0  0  0  0  0  0  0  0
   34.2957   48.2700    6.8014 H   0  0  0  0  0  0  0  0  0  0  0  0
   33.3665   47.7322    8.0748 H   0  0  0  0  0  0  0  0  0  0  0  0
   37.2540   45.4402    7.1440 H   0  0  0  0  0  0  0  0  0  0  0  0
   26.7056   52.1752    7.5290 H   0  0  0  0  0  0  0  0  0  0  0  0
   25.6082   53.4647    5.7969 H   0  0  0  0  0  0  0  0  0  0  0  0
   23.9304   52.4496    4.3967 H   0  0  0  0  0  0  0  0  0  0  0  0
   24.4075   48.8206    6.4434 H   0  0  0  0  0  0  0  0  0  0  0  0
   23.3613   50.0302    3.4063 H   0  0  0  0  0  0  0  0  0  0  0  0
   22.7868   49.0072    4.7122 H   0  0  0  0  0  0  0  0  0  0  0  0
   21.9373   51.8369    4.2078 H   0  0  0  0  0  0  0  0  0  0  0  0
   21.3741   50.8191    5.5116 H   0  0  0  0  0  0  0  0  0  0  0  0
   20.9927   50.4096    3.8563 H   0  0  0  0  0  0  0  0  0  0  0  0
  1  2  2  0  0  0  0
  1 21  1  0  0  0  0
  2 35  1  0  0  0  0
  3  2  1  0  0  0  0
  3 10  1  0  0  0  0
  4  3  2  0  0  0  0
  5  4  1  0  0  0  0
  5  6  2  0  0  0  0
  5 36  1  0  0  0  0
  6  1  1  0  0  0  0
  6 37  1  0  0  0  0
  7  4  1  0  0  0  0
  7  8  2  0  0  0  0
  8  9  1  0  0  0  0
  9 10  2  0  0  0  0
  9 38  1  0  0  0  0
 10 39  1  0  0  0  0
 11  8  1  0  0  0  0
 12 13  2  0  0  0  0
 12 11  1  0  0  0  0
 13  7  1  0  0  0  0
 14 15  1  1  0  0  0
 14 13  1  0  0  0  0
 15 40  1  0  0  0  0
 15 41  1  0  0  0  0
 16 14  1  0  0  0  0
 17 16  1  0  0  0  0
 18 16  1  0  0  0  0
 18 19  1  0  0  0  0
 18 42  1  0  0  0  0
 19 12  1  0  0  0  0
 20 19  1  0  0  0  0
 21 26  1  0  0  0  0
 22 23  1  0  0  0  0
 22 21  1  0  0  0  0
 23 25  1  0  0  0  0
 24 22  2  0  0  0  0
 27 23  1  0  0  0  0
 28 27  1  0  0  0  0
 28 43  1  0  0  0  0
 29 28  2  0  0  0  0
 29 44  1  0  0  0  0
 30 31  2  0  0  0  0
 30 29  1  0  0  0  0
 30 45  1  0  0  0  0
 31 32  1  0  0  0  0
 32 27  2  0  0  0  0
 32 46  1  0  0  0  0
 33 34  1  0  0  0  0
 33 31  1  0  0  0  0
 33 47  1  0  0  0  0
 33 48  1  0  0  0  0
 34 49  1  0  0  0  0
 34 50  1  0  0  0  0
 34 51  1  0  0  0  0
M  END
>  <REMARK>
 VINA RESULT:      -8.7      1.982      2.818
  3 active torsions:
  status: ('A' for Active; 'I' for Inactive)
    1  A    between atoms: C_2  and  C_3 
    2  A    between atoms: C_7  and  N_8 
       I    between atoms: N_8  and  C_10 
       I    between atoms: C_10  and  N_12 
    3  A    between atoms: N_12  and  C_14 

>  <TORSDO>
F 3

$$$$
resistance_project/docking/5319283d3047ac55/Q9UM73_WT/docked/molecule_0006_out.pdbqt
 OpenBabel09232609193D

 51 55  0  0  1  0  0  0  0  0999 V2000
   29.8630   48.2740    6.7370 C   0  0  0  0  0  0  0  0  0  0  0  0
   29.4510   47.0790    7.2410 C   0  0  0  0  0  0  0  0  0  0  0  0
   30.3010   46.1850    7.9150 C   0  0  0  0  0  0  0  0  0  0  0  0
   31.6230   46.5400    8.0740 C   0  0  0  0  0  0  0  0  0  0  0  0
   31.9960   47.7470    7.5540 C   0  0  0  0  0  0  0  0  0  0  0  0
   31.1850   48.6250    6.8980 C   0  0  0  0  0  0  0  0  0  0  0  0
   32.5780   45.6350    8.7820 C   0  0  0  0  0  0  0  0  0  0  0  0
   31.9670   44.4730    9.2180 C   0  0  0  0  0  0  0  0  0  0  0  0
   30.5510   44.0560    9.0670 C   0  0  0  0  0  0  0  0  0  0  0  0
   29.6740   44.9580    8.3810 C   0  0  0  0  0  0  0  0  0  0  0  0
   33.3140   43.5380   10.0410 S   0  0  0  0  0  0  0  0  0  0  0  0
   34.5480   44.7840    9.7220 C   0  0  0  0  0  0  0  0  0  0  0  0
   33.8810   45.7910    9.0380 C   0  0  0  0  0  0  0  0  0  0  0  0
   34.7760   46.8500    8.7280 C   0  0  2  0  0  0  0  0  0  0  0  0
   34.4230   48.0060    8.0470 N   0  0  0  0  0  0  0  0  0  0  0  0
   36.0800   46.7560    9.1110 N   0  0  0  0  0  0  0  0  0  0  0  0
   36.6940   47.5350    8.8710 H   0  0  0  0  0  0  0  0  0  0  0  0
   36.6200   45.7350    9.7700 C   0  0  0  0  0  0  0  0  0  0  0  0
   35.7780   44.7070   10.0780 N   0  0  0  0  0  0  0  0  0  0  0  0
   36.1210   43.8910   10.5840 H   0  0  0  0  0  0  0  0  0  0  0  0
   28.9500   49.1320    6.0660 N   0  0  0  0  0  0  0  0  0  0  0  0
   27.6260   49.2540    6.5800 C   0  0  0  0  0  0  0  0  0  0  0  0
   26.7640   50.1650    5.8810 N   0  0  0  0  0  0  0  0  0  0  0  0
   27.2380   48.6020    7.5850 O   0  0  0  0  0  0  0  0  0  0  0  0
   27.1300   50.7230    5.1080 H   0  0  0  0  0  0  0  0  0  0  0  0
   29.2360   49.6480    5.2340 H   0  0  0  0  0  0  0  0  0  0  0  0
   25.3990   50.2940    6.2640 C   0  0  0  0  0  0  0  0  0  0  0  0
   24.9030   51.5690    6.4180 C   0  0  0  0  0  0  0  0  0  0  0  0
   23.5810   51.7000    6.7890 C   0  0  0  0  0  0  0  0  0  0  0  0
   22.7880   50.5900    6.9960 C   0  0  0  0  0  0  0  0  0  0  0  0
   23.3270   49.3310    6.8300 C   0  0  0  0  0  0  0  0  0  0  0  0
   24.6420   49.1550    6.4620 C   0  0  0  0  0  0  0  0  0  0  0  0
   22.4050   48.1710    7.0750 C   0  0  0  0  0  0  0  0  0  0  0  0
   21.1090   48.6420    7.6930 C   0  0  0  0  0  0  0  0  0  0  0  0
   28.4606   46.8147    7.1219 H   0  0  0  0  0  0  0  0  0  0  0  0
   32.9847   48.0199    7.6685 H   0  0  0  0  0  0  0  0  0  0  0  0
   31.2076   49.5475    7.4396 H   0  0  0  0  0  0  0  0  0  0  0  0
   30.5433   43.1295    8.5318 H   0  0  0  0  0  0  0  0  0  0  0  0
   28.6741   44.7528    8.2292 H   0  0  0  0  0  0  0  0  0  0  0  0
   33.4315   47.9716    7.8099 H   0  0  0  0  0  0  0  0  0  0  0  0
   34.9747   48.0789    7.1922 H   0  0  0  0  0  0  0  0  0  0  0  0
   37.0226   46.1135   10.6862 H   0  0  0  0  0  0  0  0  0  0  0  0
   25.4989   52.3969    6.2615 H   0  0  0  0  0  0  0  0  0  0  0  0
   23.1790   52.6423    6.9136 H   0  0  0  0  0  0  0  0  0  0  0  0
   21.8000   50.7007    7.2727 H   0  0  0  0  0  0  0  0  0  0  0  0
   25.0450   48.2129    6.3393 H   0  0  0  0  0  0  0  0  0  0  0  0
   22.8797   47.4787    7.7386 H   0  0  0  0  0  0  0  0  0  0  0  0
   22.1891   47.6988    6.1394 H   0  0  0  0  0  0  0  0  0  0  0  0
   21.3125   49.1164    8.6302 H   0  0  0  0  0  0  0  0  0  0  0  0
   20.4635   47.8033    7.8505 H   0  0  0  0  0  0  0  0  0  0  0  0
   20.6334   49.3397    7.0359 H   0  0  0  0  0  0  0  0  0  0  0  0
  1  6  1  0  0  0  0
  1  2  2  0  0  0  0
  2  3  1  0  0  0  0
  2 35  1  0  0  0  0
  3  4  1  0  0  0  0
  3 10  2  0  0  0  0
  4  7  1  0  0  0  0
  5  4  2  0  0  0  0
  5 36  1  0  0  0  0
  6  5  1  0  0  0  0
  6 37  1  0  0  0  0
  7 13  1  0  0  0  0
  7  8  2  0  0  0  0
  8 11  1  0  0  0  0
  9  8  1  0  0  0  0
  9 38  1  0  0  0  0
 10  9  1  0  0  0  0
 10 39  1  0  0  0  0
 12 11  1  0  0  0  0
 12 19  1  0  0  0  0
 13 12  2  0  0  0  0
 14 15  1  6  0  0  0
 14 13  1  0  0  0  0
 14 16  1  0  0  0  0
 15 40  1  0  0  0  0
 15 41  1  0  0  0  0
 16 18  1  0  0  0  0
 17 16  1  0  0  0  0
 18 19  1  0  0  0  0
 18 42  1  0  0  0  0
 19 20  1  0  0  0  0
 21 22  1  0  0  0  0
 21  1  1  0  0  0  0
 22 24  2  0  0  0  0
 23 27  1  0  0  0  0
 23 22  1  0  0  0  0
 25 23  1  0  0  0  0
 26 21  1  0  0  0  0
 27 28  2  0  0  0  0
 27 32  1  0  0  0  0
 28 29  1  0  0  0  0
 28 43  1  0  0  0  0
 29 30  2  0  0  0  0
 29 44  1  0  0  0  0
 30 45  1  0  0  0  0
 31 30  1  0  0  0  0
 31 33  1  0  0  0  0
 32 31  2  0  0  0  0
 32 46  1  0  0  0  0
 33 34  1  0  0  0  0
 33 47  1  0  0  0  0
 33 48  1  0  0  0  0
 34 49  1  0  0  0  0
 34 50  1  0  0  0  0
 34 51  1  0  0  0  0
M  END
>  <REMARK>
 VINA RESULT:      -8.6      2.033      2.586
  3 active torsions:
  status: ('A' for Active; 'I' for Inactive)
    1  A    between atoms: C_2  and  C_3 
    2  A    between atoms: C_7  and  N_8 
       I    between atoms: N_8  and  C_10 
       I    between atoms: C_10  and  N_12 
    3  A    between atoms: N_12  and  C_14 

>  <TORSDO>
F 3

$$$$
resistance_project/docking/5319283d3047ac55/Q9UM73_WT/docked/molecule_0006_out.pdbqt
 OpenBabel09232609193D

 51 55  0  0  1  0  0  0  0  0999 V2000
   29.3520   48.7360    7.5020 C   0  0  0  0  0  0  0  0  0  0  0  0
   29.2390   49.5510    6.4180 C   0  0  0  0  0  0  0  0  0  0  0  0
   28.0100   49.8970    5.8300 C   0  0  0  0  0  0  0  0  0  0  0  0
   26.8570   49.3830    6.3840 C   0  0  0  0  0  0  0  0  0  0  0  0
   27.0130   48.5700    7.4710 C   0  0  0  0  0  0  0  0  0  0  0  0
   28.1970   48.2250    8.0510 C   0  0  0  0  0  0  0  0  0  0  0  0
   25.5180   49.7130    5.8080 C   0  0  0  0  0  0  0  0  0  0  0  0
   25.6160   50.5520    4.7130 C   0  0  0  0  0  0  0  0  0  0  0  0
   26.8350   51.1260    4.0890 C   0  0  0  0  0  0  0  0  0  0  0  0
   28.0940   50.7800    4.6780 C   0  0  0  0  0  0  0  0  0  0  0  0
   23.8780   50.8110    4.1860 S   0  0  0  0  0  0  0  0  0  0  0  0
   23.2010   49.7790    5.4720 C   0  0  0  0  0  0  0  0  0  0  0  0
   24.2980   49.3230    6.1890 C   0  0  0  0  0  0  0  0  0  0  0  0
   23.8740   48.4810    7.2520 C   0  0  1  0  0  0  0  0  0  0  0  0
   24.7260   47.8630    8.1570 N   0  0  0  0  0  0  0  0  0  0  0  0
   22.5450   48.2420    7.4250 N   0  0  0  0  0  0  0  0  0  0  0  0
   22.2770   47.6330    8.1980 H   0  0  0  0  0  0  0  0  0  0  0  0
   21.5660   48.7350    6.6710 C   0  0  0  0  0  0  0  0  0  0  0  0
   21.9510   49.5460    5.6450 N   0  0  0  0  0  0  0  0  0  0  0  0
   21.2560   49.9620    5.0250 H   0  0  0  0  0  0  0  0  0  0  0  0
   30.6270   48.4260    8.0470 N   0  0  0  0  0  0  0  0  0  0  0  0
   31.3200   47.2830    7.5510 C   0  0  0  0  0  0  0  0  0  0  0  0
   32.6200   47.0460    8.1140 N   0  0  0  0  0  0  0  0  0  0  0  0
   30.8220   46.5300    6.6740 O   0  0  0  0  0  0  0  0  0  0  0  0
   33.0170   47.7110    8.7780 H   0  0  0  0  0  0  0  0  0  0  0  0
   31.0370   49.0080    8.7780 H   0  0  0  0  0  0  0  0  0  0  0  0
   33.3560   45.8840    7.7470 C   0  0  0  0  0  0  0  0  0  0  0  0
   34.4750   46.0650    6.9660 C   0  0  0  0  0  0  0  0  0  0  0  0
   35.1920   44.9430    6.6070 C   0  0  0  0  0  0  0  0  0  0  0  0
   34.8000   43.6860    7.0210 C   0  0  0  0  0  0  0  0  0  0  0  0
   33.6720   43.5520    7.8040 C   0  0  0  0  0  0  0  0  0  0  0  0
   32.9260   44.6450    8.1840 C   0  0  0  0  0  0  0  0  0  0  0  0
   33.3050   42.1540    8.2150 C   0  0  0  0  0  0  0  0  0  0  0  0
   31.8930   41.8270    7.7880 C   0  0  0  0  0  0  0  0  0  0  0  0
   30.1029   49.9361    6.0051 H   0  0  0  0  0  0  0  0  0  0  0  0
   26.1547   48.1811    7.8918 H   0  0  0  0  0  0  0  0  0  0  0  0
   28.2270   47.6022    8.8734 H   0  0  0  0  0  0  0  0  0  0  0  0
   26.7776   51.7471    3.2668 H   0  0  0  0  0  0  0  0  0  0  0  0
   28.9929   51.1310    4.3122 H   0  0  0  0  0  0  0  0  0  0  0  0
   25.6914   48.1082    7.9371 H   0  0  0  0  0  0  0  0  0  0  0  0
   24.6100   46.8514    8.0969 H   0  0  0  0  0  0  0  0  0  0  0  0
   21.0287   47.9100    6.2520 H   0  0  0  0  0  0  0  0  0  0  0  0
   34.7669   47.0064    6.6601 H   0  0  0  0  0  0  0  0  0  0  0  0
   36.0345   45.0448    6.0198 H   0  0  0  0  0  0  0  0  0  0  0  0
   35.3457   42.8539    6.7473 H   0  0  0  0  0  0  0  0  0  0  0  0
   32.0824   44.5437    8.7697 H   0  0  0  0  0  0  0  0  0  0  0  0
   33.9803   41.4635    7.7546 H   0  0  0  0  0  0  0  0  0  0  0  0
   33.3688   42.0799    9.2805 H   0  0  0  0  0  0  0  0  0  0  0  0
   31.8170   41.8979    6.7231 H   0  0  0  0  0  0  0  0  0  0  0  0
   31.2141   42.5190    8.2409 H   0  0  0  0  0  0  0  0  0  0  0  0
   31.6480   40.8325    8.0977 H   0  0  0  0  0  0  0  0  0  0  0  0
  1 21  1  0  0  0  0
  1  6  1  0  0  0  0
  2  1  2  0  0  0  0
  2 35  1  0  0  0  0
  3  4  2  0  0  0  0
  3  2  1  0  0  0  0
  4  5  1  0  0  0  0
  5  6  2  0  0  0  0
  5 36  1  0  0  0  0
  6 37  1  0  0  0  0
  7 13  1  0  0  0  0
  7  4  1  0  0  0  0
  8  7  2  0  0  0  0
  9 10  2  0  0  0  0
  9  8  1  0  0  0  0
  9 38  1  0  0  0  0
 10  3  1  0  0  0  0
 10 39  1  0  0  0  0
 11  8  1  0  0  0  0
 11 12  1  0  0  0  0
 12 19  1  0  0  0  0
 12 13  2  0  0  0  0
 13 14  1  0  0  0  0
 14 16  1  0  0  0  0
 14 15  1  1  0  0  0
 15 40  1  0  0  0  0
 15 41  1  0  0  0  0
 16 17  1  0  0  0  0
 18 16  1  0  0  0  0
 18 42  1  0  0  0  0
 19 18  1  0  0  0  0
 20 19  1  0  0  0  0
 21 26  1  0  0  0  0
 22 21  1  0  0  0  0
 22 23  1  0  0  0  0
 23 25  1  0  0  0  0
 24 22  2  0  0  0  0
 27 23  1  0  0  0  0
 27 32  2  0  0  0  0
 28 27  1  0  0  0  0
 28 43  1  0  0  0  0
 29 28  2  0  0  0  0
 29 30  1  0  0  0  0
 29 44  1  0  0  0  0
 30 31  2  0  0  0  0
 30 45  1  0  0  0  0
 31 32  1  0  0  0  0
 31 33  1  0  0  0  0
 32 46  1  0  0  0  0
 33 47  1  0  0  0  0
 33 48  1  0  0  0  0
 34 33  1  0  0  0  0
 34 49  1  0  0  0  0
 34 50  1  0  0  0  0
 34 51  1  0  0  0  0
M  END
>  <REMARK>
 VINA RESULT:      -8.6      3.117      9.903
  3 active torsions:
  status: ('A' for Active; 'I' for Inactive)
    1  A    between atoms: C_2  and  C_3 
    2  A    between atoms: C_7  and  N_8 
       I    between atoms: N_8  and  C_10 
       I    between atoms: C_10  and  N_12 
    3  A    between atoms: N_12  and  C_14 

>  <TORSDO>
F 3

$$$$
resistance_project/docking/5319283d3047ac55/Q9UM73_WT/docked/molecule_0006_out.pdbqt
 OpenBabel09232609193D

 51 55  0  0  1  0  0  0  0  0999 V2000
   27.6620   48.3930    7.7150 C   0  0  0  0  0  0  0  0  0  0  0  0
   27.5160   47.3200    8.5390 C   0  0  0  0  0  0  0  0  0  0  0  0
   28.4990   46.3300    8.7070 C   0  0  0  0  0  0  0  0  0  0  0  0
   29.6750   46.4540    7.9990 C   0  0  0  0  0  0  0  0  0  0  0  0
   29.7820   47.5450    7.1840 C   0  0  0  0  0  0  0  0  0  0  0  0
   28.8380   48.5140    7.0100 C   0  0  0  0  0  0  0  0  0  0  0  0
   30.7610   45.4370    8.1330 C   0  0  0  0  0  0  0  0  0  0  0  0
   30.4200   44.4270    9.0150 C   0  0  0  0  0  0  0  0  0  0  0  0
   29.1680   44.2580    9.7940 C   0  0  0  0  0  0  0  0  0  0  0  0
   28.1570   45.2600    9.6310 C   0  0  0  0  0  0  0  0  0  0  0  0
   31.8800   43.3160    9.0140 S   0  0  0  0  0  0  0  0  0  0  0  0
   32.7920   44.3060    7.8450 C   0  0  0  0  0  0  0  0  0  0  0  0
   31.9580   45.3740    7.5440 C   0  0  0  0  0  0  0  0  0  0  0  0
   32.5880   46.2390    6.6090 C   0  0  1  0  0  0  0  0  0  0  0  0
   32.0210   47.4000    6.1030 N   0  0  0  0  0  0  0  0  0  0  0  0
   33.8380   45.9390    6.1580 N   0  0  0  0  0  0  0  0  0  0  0  0
   34.2590   46.5820    5.4880 H   0  0  0  0  0  0  0  0  0  0  0  0
   34.5550   44.8770    6.5160 C   0  0  0  0  0  0  0  0  0  0  0  0
   33.9690   44.0330    7.4120 N   0  0  0  0  0  0  0  0  0  0  0  0
   34.4590   43.1990    7.7340 H   0  0  0  0  0  0  0  0  0  0  0  0
   26.6270   49.3590    7.5910 N   0  0  0  0  0  0  0  0  0  0  0  0
   26.9890   50.7180    7.3530 C   0  0  0  0  0  0  0  0  0  0  0  0
   25.8980   51.6390    7.1980 N   0  0  0  0  0  0  0  0  0  0  0  0
   28.1910   51.0850    7.2810 O   0  0  0  0  0  0  0  0  0  0  0  0
   24.9370   51.2960    7.2000 H   0  0  0  0  0  0  0  0  0  0  0  0
   25.6470   49.0880    7.6730 H   0  0  0  0  0  0  0  0  0  0  0  0
   26.1540   53.0300    7.0400 C   0  0  0  0  0  0  0  0  0  0  0  0
   26.1990   53.5230    5.7560 C   0  0  0  0  0  0  0  0  0  0  0  0
   26.4470   54.8710    5.5980 C   0  0  0  0  0  0  0  0  0  0  0  0
   26.6400   55.6920    6.6910 C   0  0  0  0  0  0  0  0  0  0  0  0
   26.5850   55.1540    7.9600 C   0  0  0  0  0  0  0  0  0  0  0  0
   26.3420   53.8150    8.1630 C   0  0  0  0  0  0  0  0  0  0  0  0
   26.8070   56.1070    9.1000 C   0  0  0  0  0  0  0  0  0  0  0  0
   28.2810   56.3780    9.2890 C   0  0  0  0  0  0  0  0  0  0  0  0
   26.6355   47.2283    9.0694 H   0  0  0  0  0  0  0  0  0  0  0  0
   30.6593   47.6455    6.6499 H   0  0  0  0  0  0  0  0  0  0  0  0
   28.5871   48.5332    5.9700 H   0  0  0  0  0  0  0  0  0  0  0  0
   29.4339   44.2342   10.8302 H   0  0  0  0  0  0  0  0  0  0  0  0
   27.2549   45.2252   10.1310 H   0  0  0  0  0  0  0  0  0  0  0  0
   32.6714   47.8404    5.4522 H   0  0  0  0  0  0  0  0  0  0  0  0
   31.8199   48.0422    6.8695 H   0  0  0  0  0  0  0  0  0  0  0  0
   35.4684   45.2295    6.9477 H   0  0  0  0  0  0  0  0  0  0  0  0
   26.0526   52.9070    4.9411 H   0  0  0  0  0  0  0  0  0  0  0  0
   26.4889   55.2718    4.6479 H   0  0  0  0  0  0  0  0  0  0  0  0
   26.8237   56.6990    6.5599 H   0  0  0  0  0  0  0  0  0  0  0  0
   26.3017   53.4135    9.1129 H   0  0  0  0  0  0  0  0  0  0  0  0
   26.4104   55.6799    9.9973 H   0  0  0  0  0  0  0  0  0  0  0  0
   26.3128   57.0299    8.8786 H   0  0  0  0  0  0  0  0  0  0  0  0
   28.7865   55.4615    9.5112 H   0  0  0  0  0  0  0  0  0  0  0  0
   28.4165   57.0653   10.0979 H   0  0  0  0  0  0  0  0  0  0  0  0
   28.6841   56.7992    8.3918 H   0  0  0  0  0  0  0  0  0  0  0  0
  1  2  2  0  0  0  0
  2  3  1  0  0  0  0
  2 35  1  0  0  0  0
  3 10  2  0  0  0  0
  4  7  1  0  0  0  0
  4  3  1  0  0  0  0
  5  4  2  0  0  0  0
  5 36  1  0  0  0  0
  6  5  1  0  0  0  0
  6  1  1  0  0  0  0
  6 37  1  0  0  0  0
  7  8  2  0  0  0  0
  8  9  1  0  0  0  0
  9 38  1  0  0  0  0
 10  9  1  0  0  0  0
 10 39  1  0  0  0  0
 11  8  1  0  0  0  0
 12 11  1  0  0  0  0
 13 12  2  0  0  0  0
 13  7  1  0  0  0  0
 14 15  1  1  0  0  0
 14 13  1  0  0  0  0
 15 40  1  0  0  0  0
 15 41  1  0  0  0  0
 16 18  1  0  0  0  0
 16 14  1  0  0  0  0
 17 16  1  0  0  0  0
 18 19  1  0  0  0  0
 18 42  1  0  0  0  0
 19 20  1  0  0  0  0
 19 12  1  0  0  0  0
 21 26  1  0  0  0  0
 21  1  1  0  0  0  0
 22 21  1  0  0  0  0
 23 25  1  0  0  0  0
 23 22  1  0  0  0  0
 24 22  2  0  0  0  0
 27 23  1  0  0  0  0
 27 32  2  0  0  0  0
 28 27  1  0  0  0  0
 28 43  1  0  0  0  0
 29 28  2  0  0  0  0
 29 30  1  0  0  0  0
 29 44  1  0  0  0  0
 30 31  2  0  0  0  0
 30 45  1  0  0  0  0
 31 32  1  0  0  0  0
 31 33  1  0  0  0  0
 32 46  1  0  0  0  0
 33 34  1  0  0  0  0
 33 47  1  0  0  0  0
 33 48  1  0  0  0  0
 34 49  1  0  0  0  0
 34 50  1  0  0  0  0
 34 51  1  0  0  0  0
M  END
>  <REMARK>
 VINA RESULT:      -8.5      3.177      4.059
  3 active torsions:
  status: ('A' for Active; 'I' for Inactive)
    1  A    between atoms: C_2  and  C_3 
    2  A    between atoms: C_7  and  N_8 
       I    between atoms: N_8  and  C_10 
       I    between atoms: C_10  and  N_12 
    3  A    between atoms: N_12  and  C_14 

>  <TORSDO>
F 3

$$$$
resistance_project/docking/5319283d3047ac55/Q9UM73_WT/docked/molecule_0006_out.pdbqt
 OpenBabel09232609193D

 51 55  0  0  1  0  0  0  0  0999 V2000
   29.0430   48.8340    7.3840 C   0  0  0  0  0  0  0  0  0  0  0  0
   27.8250   48.3970    7.8060 C   0  0  0  0  0  0  0  0  0  0  0  0
   26.6130   48.7610    7.1920 C   0  0  0  0  0  0  0  0  0  0  0  0
   26.6630   49.6040    6.1030 C   0  0  0  0  0  0  0  0  0  0  0  0
   27.9050   50.0190    5.7110 C   0  0  0  0  0  0  0  0  0  0  0  0
   29.0880   49.6760    6.2950 C   0  0  0  0  0  0  0  0  0  0  0  0
   25.4120   50.0270    5.4050 C   0  0  0  0  0  0  0  0  0  0  0  0
   24.2830   49.4780    5.9840 C   0  0  0  0  0  0  0  0  0  0  0  0
   24.1880   48.5690    7.1530 C   0  0  0  0  0  0  0  0  0  0  0  0
   25.4150   48.1910    7.7890 C   0  0  0  0  0  0  0  0  0  0  0  0
   22.8960   50.1300    4.9750 S   0  0  0  0  0  0  0  0  0  0  0  0
   23.9580   51.0630    3.8890 C   0  0  0  0  0  0  0  0  0  0  0  0
   25.2460   50.8270    4.3470 C   0  0  0  0  0  0  0  0  0  0  0  0
   26.1880   51.5280    3.5470 C   0  0  2  0  0  0  0  0  0  0  0  0
   27.5610   51.5040    3.7410 N   0  0  0  0  0  0  0  0  0  0  0  0
   25.7460   52.2890    2.5070 N   0  0  0  0  0  0  0  0  0  0  0  0
   26.4490   52.7790    1.9550 H   0  0  0  0  0  0  0  0  0  0  0  0
   24.4730   52.4470    2.1520 C   0  0  0  0  0  0  0  0  0  0  0  0
   23.5530   51.7830    2.9070 N   0  0  0  0  0  0  0  0  0  0  0  0
   22.5580   51.8560    2.6930 H   0  0  0  0  0  0  0  0  0  0  0  0
   30.2300   48.4270    8.0500 N   0  0  0  0  0  0  0  0  0  0  0  0
   30.9630   47.3230    7.5230 C   0  0  0  0  0  0  0  0  0  0  0  0
   32.1740   46.9870    8.2180 N   0  0  0  0  0  0  0  0  0  0  0  0
   30.5720   46.6850    6.5110 O   0  0  0  0  0  0  0  0  0  0  0  0
   32.4920   47.5640    8.9970 H   0  0  0  0  0  0  0  0  0  0  0  0
   30.5510   48.9140    8.8870 H   0  0  0  0  0  0  0  0  0  0  0  0
   32.9320   45.8500    7.8210 C   0  0  0  0  0  0  0  0  0  0  0  0
   34.0340   46.0700    7.0260 C   0  0  0  0  0  0  0  0  0  0  0  0
   34.7730   44.9710    6.6390 C   0  0  0  0  0  0  0  0  0  0  0  0
   34.4170   43.6990    7.0380 C   0  0  0  0  0  0  0  0  0  0  0  0
   33.3050   43.5250    7.8360 C   0  0  0  0  0  0  0  0  0  0  0  0
   32.5390   44.5940    8.2440 C   0  0  0  0  0  0  0  0  0  0  0  0
   32.9790   42.1120    8.2290 C   0  0  0  0  0  0  0  0  0  0  0  0
   33.9360   41.6210    9.2900 C   0  0  0  0  0  0  0  0  0  0  0  0
   27.7888   47.7644    8.6205 H   0  0  0  0  0  0  0  0  0  0  0  0
   27.9514   50.6512    4.8966 H   0  0  0  0  0  0  0  0  0  0  0  0
   29.9858   50.0346    5.9338 H   0  0  0  0  0  0  0  0  0  0  0  0
   23.2770   48.2238    7.4934 H   0  0  0  0  0  0  0  0  0  0  0  0
   25.4465   47.5630    8.6073 H   0  0  0  0  0  0  0  0  0  0  0  0
   28.0141   52.0866    3.0370 H   0  0  0  0  0  0  0  0  0  0  0  0
   27.8994   50.5454    3.6580 H   0  0  0  0  0  0  0  0  0  0  0  0
   24.3712   52.1100    1.1416 H   0  0  0  0  0  0  0  0  0  0  0  0
   34.2980   47.0228    6.7301 H   0  0  0  0  0  0  0  0  0  0  0  0
   35.6046   45.1023    6.0421 H   0  0  0  0  0  0  0  0  0  0  0  0
   34.9777   42.8847    6.7421 H   0  0  0  0  0  0  0  0  0  0  0  0
   31.7069   44.4631    8.8402 H   0  0  0  0  0  0  0  0  0  0  0  0
   33.0547   41.4812    7.3681 H   0  0  0  0  0  0  0  0  0  0  0  0
   31.9842   42.0840    8.6221 H   0  0  0  0  0  0  0  0  0  0  0  0
   34.9351   41.6447    8.9077 H   0  0  0  0  0  0  0  0  0  0  0  0
   33.6821   40.6180    9.5627 H   0  0  0  0  0  0  0  0  0  0  0  0
   33.8686   42.2526   10.1510 H   0  0  0  0  0  0  0  0  0  0  0  0
  1  2  2  0  0  0  0
  1 21  1  0  0  0  0
  2 35  1  0  0  0  0
  3 10  1  0  0  0  0
  3  2  1  0  0  0  0
  4  3  2  0  0  0  0
  5  4  1  0  0  0  0
  5  6  2  0  0  0  0
  5 36  1  0  0  0  0
  6  1  1  0  0  0  0
  6 37  1  0  0  0  0
  7  8  2  0  0  0  0
  7  4  1  0  0  0  0
  8  9  1  0  0  0  0
  9 10  2  0  0  0  0
  9 38  1  0  0  0  0
 10 39  1  0  0  0  0
 11  8  1  0  0  0  0
 12 13  2  0  0  0  0
 12 11  1  0  0  0  0
 13  7  1  0  0  0  0
 14 15  1  1  0  0  0
 14 13  1  0  0  0  0
 15 40  1  0  0  0  0
 15 41  1  0  0  0  0
 16 14  1  0  0  0  0
 17 16  1  0  0  0  0
 18 16  1  0  0  0  0
 18 19  1  0  0  0  0
 18 42  1  0  0  0  0
 19 12  1  0  0  0  0
 20 19  1  0  0  0  0
 21 26  1  0  0  0  0
 22 21  1  0  0  0  0
 22 23  1  0  0  0  0
 23 25  1  0  0  0  0
 24 22  2  0  0  0  0
 27 23  1  0  0  0  0
 27 32  2  0  0  0  0
 28 27  1  0  0  0  0
 28 43  1  0  0  0  0
 29 28  2  0  0  0  0
 29 30  1  0  0  0  0
 29 44  1  0  0  0  0
 30 31  2  0  0  0  0
 30 45  1  0  0  0  0
 31 33  1  0  0  0  0
 31 32  1  0  0  0  0
 32 46  1  0  0  0  0
 33 34  1  0  0  0  0
 33 47  1  0  0  0  0
 33 48  1  0  0  0  0
 34 49  1  0  0  0  0
 34 50  1  0  0  0  0
 34 51  1  0  0  0  0
M  END
>  <REMARK>
 VINA RESULT:      -8.4      3.474      9.713
  3 active torsions:
  status: ('A' for Active; 'I' for Inactive)
    1  A    between atoms: C_2  and  C_3 
    2  A    between atoms: C_7  and  N_8 
       I    between atoms: N_8  and  C_10 
       I    between atoms: C_10  and  N_12 
    3  A    between atoms: N_12  and  C_14 

>  <TORSDO>
F 3

$$$$
