resistance_project/docking/5319283d3047ac55/Q9UM73_WT/docked/molecule_0003_out.pdbqt
 OpenBabel09232609183D

 79 83  0  0  1  0  0  0  0  0999 V2000
   28.4170   48.5940    6.9320 C   0  0  2  0  0  0  0  0  0  0  0  0
   29.5460   48.2980    6.3100 N   0  0  0  0  0  0  0  0  0  0  0  0
   29.8900   48.8810    5.5470 H   0  0  0  0  0  0  0  0  0  0  0  0
   30.2430   47.1890    6.7160 C   0  0  0  0  0  0  0  0  0  0  0  0
   29.7210   46.4330    7.7590 C   0  0  0  0  0  0  0  0  0  0  0  0
   30.3650   45.2970    8.1970 C   0  0  0  0  0  0  0  0  0  0  0  0
   29.8540   44.5340    9.2050 C   0  0  0  0  0  0  0  0  0  0  0  0
   28.6680   44.8390    9.8590 C   0  0  0  0  0  0  0  0  0  0  0  0
   28.0020   45.9960    9.4230 C   0  0  0  0  0  0  0  0  0  0  0  0
   28.5410   46.7540    8.3950 C   0  0  0  0  0  0  0  0  0  0  0  0
   27.9000   47.8520    7.9580 N   0  0  0  0  0  0  0  0  0  0  0  0
   27.0230   48.1350    8.3940 H   0  0  0  0  0  0  0  0  0  0  0  0
   31.4140   46.9110    6.0260 N   0  0  0  0  0  0  0  0  0  0  0  0
   31.2930   46.5400    5.0830 H   0  0  0  0  0  0  0  0  0  0  0  0
   32.7250   47.0680    6.4420 C   0  0  0  0  0  0  0  0  0  0  0  0
   33.0910   48.2520    7.0560 C   0  0  0  0  0  0  0  0  0  0  0  0
   34.3860   48.4080    7.5250 C   0  0  0  0  0  0  0  0  0  0  0  0
   35.3510   47.4280    7.4110 C   0  0  0  0  0  0  0  0  0  0  0  0
   34.9660   46.2560    6.7960 C   0  0  0  0  0  0  0  0  0  0  0  0
   33.6970   46.0610    6.3190 C   0  0  0  0  0  0  0  0  0  0  0  0
   36.6950   47.6160    7.8930 N   0  0  0  0  0  0  0  0  0  0  0  0
   37.4060   46.4920    8.5010 C   0  0  0  0  0  0  0  0  0  0  0  0
   38.8770   46.6290    8.1620 C   0  0  0  0  0  0  0  0  0  0  0  0
   39.1020   47.4420    7.0100 N   0  0  0  0  0  0  0  0  0  0  0  0
   38.7410   46.7990    5.7620 C   0  0  0  0  0  0  0  0  0  0  0  0
   38.6500   48.7890    7.1380 C   0  0  0  0  0  0  0  0  0  0  0  0
   37.2800   48.9290    7.7460 C   0  0  0  0  0  0  0  0  0  0  0  0
   27.6190   49.7340    6.5640 N   0  0  2  0  0  0  0  0  0  0  0  0
   27.9120   50.5150    5.3680 C   0  0  0  0  0  0  0  0  0  0  0  0
   26.6660   50.2850    4.4760 C   0  0  0  0  0  0  0  0  0  0  0  0
   25.4200   50.5220    5.2290 C   0  0  1  0  0  0  0  0  0  0  0  0
   25.5930   50.9920    6.6340 C   0  0  0  0  0  0  0  0  0  0  0  0
   26.4910   50.0970    7.4480 C   0  0  0  0  0  0  0  0  0  0  0  0
   24.2230   50.9740    4.5060 C   0  0  0  0  0  0  0  0  0  0  0  0
   22.9800   50.7160    5.2660 C   0  0  0  0  0  0  0  0  0  0  0  0
   22.4700   49.4070    5.5160 N   0  0  0  0  0  0  0  0  0  0  0  0
   22.9050   48.5740    5.1200 H   0  0  0  0  0  0  0  0  0  0  0  0
   22.2970   51.6710    5.7410 O   0  0  0  0  0  0  0  0  0  0  0  0
   21.2800   49.3290    6.3800 C   0  0  0  0  0  0  0  0  0  0  0  0
   21.6790   48.4750    7.5660 C   0  0  0  0  0  0  0  0  0  0  0  0
   30.5040   43.3850    9.6440 O   0  0  0  0  0  0  0  0  0  0  0  0
   31.9280   43.3370    9.6650 C   0  0  0  0  0  0  0  0  0  0  0  0
   31.2535   45.0173    7.7527 H   0  0  0  0  0  0  0  0  0  0  0  0
   28.8901   44.9617   10.8985 H   0  0  0  0  0  0  0  0  0  0  0  0
   27.1146   46.2809    9.8662 H   0  0  0  0  0  0  0  0  0  0  0  0
   32.4042   49.0146    7.1643 H   0  0  0  0  0  0  0  0  0  0  0  0
   34.6404   49.2984    7.9806 H   0  0  0  0  0  0  0  0  0  0  0  0
   35.6588   45.4983    6.6912 H   0  0  0  0  0  0  0  0  0  0  0  0
   33.4527   45.1668    5.8654 H   0  0  0  0  0  0  0  0  0  0  0  0
   37.0280   45.5699    8.1114 H   0  0  0  0  0  0  0  0  0  0  0  0
   37.2674   46.4950    9.5620 H   0  0  0  0  0  0  0  0  0  0  0  0
   39.3812   47.0700    8.9964 H   0  0  0  0  0  0  0  0  0  0  0  0
   39.2521   45.6504    7.9461 H   0  0  0  0  0  0  0  0  0  0  0  0
   38.9364   47.4653    4.9479 H   0  0  0  0  0  0  0  0  0  0  0  0
   37.7005   46.5498    5.7771 H   0  0  0  0  0  0  0  0  0  0  0  0
   39.3196   45.9072    5.6398 H   0  0  0  0  0  0  0  0  0  0  0  0
   38.6303   49.2297    6.1632 H   0  0  0  0  0  0  0  0  0  0  0  0
   39.3310   49.2782    7.8027 H   0  0  0  0  0  0  0  0  0  0  0  0
   36.6636   49.5271    7.1079 H   0  0  0  0  0  0  0  0  0  0  0  0
   37.3555   49.4007    8.7034 H   0  0  0  0  0  0  0  0  0  0  0  0
   28.0265   51.5519    5.6061 H   0  0  0  0  0  0  0  0  0  0  0  0
   28.8257   50.2250    4.8927 H   0  0  0  0  0  0  0  0  0  0  0  0
   26.7039   50.9563    3.6437 H   0  0  0  0  0  0  0  0  0  0  0  0
   26.6717   49.2687    4.1415 H   0  0  0  0  0  0  0  0  0  0  0  0
   25.0996   49.5097    5.3616 H   0  0  0  0  0  0  0  0  0  0  0  0
   24.6317   51.0274    7.1025 H   0  0  0  0  0  0  0  0  0  0  0  0
   26.0538   51.9568    6.5942 H   0  0  0  0  0  0  0  0  0  0  0  0
   26.8488   50.6169    8.3121 H   0  0  0  0  0  0  0  0  0  0  0  0
   25.9691   49.2286    7.7922 H   0  0  0  0  0  0  0  0  0  0  0  0
   24.1691   50.4561    3.5712 H   0  0  0  0  0  0  0  0  0  0  0  0
   24.3062   52.0309    4.3616 H   0  0  0  0  0  0  0  0  0  0  0  0
   20.4669   48.8757    5.8525 H   0  0  0  0  0  0  0  0  0  0  0  0
   20.9560   50.3009    6.6888 H   0  0  0  0  0  0  0  0  0  0  0  0
   21.9967   47.5129    7.2219 H   0  0  0  0  0  0  0  0  0  0  0  0
   20.8408   48.3606    8.2212 H   0  0  0  0  0  0  0  0  0  0  0  0
   22.4813   48.9483    8.0925 H   0  0  0  0  0  0  0  0  0  0  0  0
   32.2474   42.3829   10.0291 H   0  0  0  0  0  0  0  0  0  0  0  0
   32.3014   44.1071   10.3072 H   0  0  0  0  0  0  0  0  0  0  0  0
   32.3045   43.4850    8.6744 H   0  0  0  0  0  0  0  0  0  0  0  0
  1  2  1  6  0  0  0
  1 11  1  0  0  0  0
  2  4  1  0  0  0  0
  3  2  1  0  0  0  0
  4  5  2  0  0  0  0
  5  6  1  0  0  0  0
  5 10  1  0  0  0  0
  6  7  2  0  0  0  0
  6 43  1  0  0  0  0
  7 41  1  0  0  0  0
  7  8  1  0  0  0  0
  8 44  1  0  0  0  0
  9  8  1  0  0  0  0
  9 45  1  0  0  0  0
 10  9  2  0  0  0  0
 11 12  1  0  0  0  0
 11 10  1  0  0  0  0
 13 15  1  0  0  0  0
 13  4  1  0  0  0  0
 14 13  1  0  0  0  0
 15 16  1  0  0  0  0
 16 17  2  0  0  0  0
 16 46  1  0  0  0  0
 17 47  1  0  0  0  0
 18 17  1  0  0  0  0
 18 21  1  0  0  0  0
 19 18  2  0  0  0  0
 19 48  1  0  0  0  0
 20 15  2  0  0  0  0
 20 19  1  0  0  0  0
 20 49  1  0  0  0  0
 21 22  1  0  0  0  0
 22 50  1  0  0  0  0
 22 51  1  0  0  0  0
 23 22  1  0  0  0  0
 23 52  1  0  0  0  0
 23 53  1  0  0  0  0
 24 26  1  0  0  0  0
 24 23  1  0  0  0  0
 25 24  1  0  0  0  0
 25 54  1  0  0  0  0
 25 55  1  0  0  0  0
 25 56  1  0  0  0  0
 26 27  1  0  0  0  0
 26 57  1  0  0  0  0
 26 58  1  0  0  0  0
 27 21  1  0  0  0  0
 27 59  1  0  0  0  0
 27 60  1  0  0  0  0
 28 29  1  1  0  0  0
 28  1  1  0  0  0  0
 28 33  1  0  0  0  0
 29 61  1  0  0  0  0
 29 62  1  0  0  0  0
 30 31  1  0  0  0  0
 30 29  1  0  0  0  0
 30 63  1  0  0  0  0
 30 64  1  0  0  0  0
 31 32  1  0  0  0  0
 31 65  1  1  0  0  0
 32 33  1  0  0  0  0
 32 66  1  0  0  0  0
 32 67  1  0  0  0  0
 33 68  1  0  0  0  0
 33 69  1  0  0  0  0
 34 31  1  0  0  0  0
 34 35  1  0  0  0  0
 34 70  1  0  0  0  0
 34 71  1  0  0  0  0
 35 36  1  0  0  0  0
 35 38  2  0  0  0  0
 36 39  1  0  0  0  0
 37 36  1  0  0  0  0
 39 40  1  0  0  0  0
 39 72  1  0  0  0  0
 39 73  1  0  0  0  0
 40 74  1  0  0  0  0
 40 75  1  0  0  0  0
 40 76  1  0  0  0  0
 41 42  1  0  0  0  0
 42 77  1  0  0  0  0
 42 78  1  0  0  0  0
 42 79  1  0  0  0  0
M  END
>  <MODEL>
1

>  <REMARK>
 VINA RESULT:      -8.3      0.000      0.000
  8 active torsions:
  status: ('A' for Active; 'I' for Inactive)
    1  A    between atoms: C_2  and  N_3 
       I    between atoms: N_3  and  C_5 
    2  A    between atoms: C_5  and  C_7 
    3  A    between atoms: C_7  and  C_8 
    4  A    between atoms: N_11  and  C_12 
    5  A    between atoms: C_15  and  N_16 
    6  A    between atoms: N_16  and  C_18 
    7  A    between atoms: C_21  and  N_22 
    8  A    between atoms: C_33  and  O_34 

>  <TORSDO>
F 8

$$$$
resistance_project/docking/5319283d3047ac55/Q9UM73_WT/docked/molecule_0003_out.pdbqt
 OpenBabel09232609183D

 79 83  0  0  1  0  0  0  0  0999 V2000
   28.8390   48.9790    6.6670 C   0  0  2  0  0  0  0  0  0  0  0  0
   30.0440   48.6620    6.2240 N   0  0  0  0  0  0  0  0  0  0  0  0
   30.5230   49.2540    5.5460 H   0  0  0  0  0  0  0  0  0  0  0  0
   30.6330   47.5180    6.6970 C   0  0  0  0  0  0  0  0  0  0  0  0
   29.9280   46.7510    7.6170 C   0  0  0  0  0  0  0  0  0  0  0  0
   30.4590   45.5800    8.1130 C   0  0  0  0  0  0  0  0  0  0  0  0
   29.7700   44.8080    9.0010 C   0  0  0  0  0  0  0  0  0  0  0  0
   28.5050   45.1350    9.4680 C   0  0  0  0  0  0  0  0  0  0  0  0
   27.9520   46.3270    8.9710 C   0  0  0  0  0  0  0  0  0  0  0  0
   28.6720   47.0950    8.0680 C   0  0  0  0  0  0  0  0  0  0  0  0
   28.1430   48.2270    7.5720 N   0  0  0  0  0  0  0  0  0  0  0  0
   27.2160   48.5280    7.8730 H   0  0  0  0  0  0  0  0  0  0  0  0
   31.8900   47.2190    6.1940 N   0  0  0  0  0  0  0  0  0  0  0  0
   31.9120   46.5270    5.4440 H   0  0  0  0  0  0  0  0  0  0  0  0
   33.1210   47.7300    6.5690 C   0  0  0  0  0  0  0  0  0  0  0  0
   33.6480   47.3630    7.7940 C   0  0  0  0  0  0  0  0  0  0  0  0
   34.9010   47.8240    8.1650 C   0  0  0  0  0  0  0  0  0  0  0  0
   35.6690   48.6470    7.3660 C   0  0  0  0  0  0  0  0  0  0  0  0
   35.1250   49.0010    6.1500 C   0  0  0  0  0  0  0  0  0  0  0  0
   33.8910   48.5670    5.7440 C   0  0  0  0  0  0  0  0  0  0  0  0
   36.9630   49.1250    7.7770 N   0  0  0  0  0  0  0  0  0  0  0  0
   38.0620   48.1750    7.9470 C   0  0  0  0  0  0  0  0  0  0  0  0
   39.3490   48.8720    7.5560 C   0  0  0  0  0  0  0  0  0  0  0  0
   39.1290   49.9950    6.7020 N   0  0  0  0  0  0  0  0  0  0  0  0
   38.7600   49.6340    5.3460 C   0  0  0  0  0  0  0  0  0  0  0  0
   38.3350   51.0310    7.2780 C   0  0  0  0  0  0  0  0  0  0  0  0
   37.1100   50.5450    8.0030 C   0  0  0  0  0  0  0  0  0  0  0  0
   28.1450   50.1570    6.2160 N   0  0  2  0  0  0  0  0  0  0  0  0
   26.7190   50.1330    5.9170 C   0  0  0  0  0  0  0  0  0  0  0  0
   26.1130   51.0830    6.9810 C   0  0  0  0  0  0  0  0  0  0  0  0
   26.8400   52.3660    7.0230 C   0  0  1  0  0  0  0  0  0  0  0  0
   27.9310   52.5250    6.0200 C   0  0  0  0  0  0  0  0  0  0  0  0
   28.9310   51.3990    6.0550 C   0  0  0  0  0  0  0  0  0  0  0  0
   26.1240   53.5790    7.4420 C   0  0  0  0  0  0  0  0  0  0  0  0
   27.0380   54.7180    7.6710 C   0  0  0  0  0  0  0  0  0  0  0  0
   27.7770   54.9030    8.8790 N   0  0  0  0  0  0  0  0  0  0  0  0
   27.6580   54.2880    9.6830 H   0  0  0  0  0  0  0  0  0  0  0  0
   27.2130   55.6030    6.7810 O   0  0  0  0  0  0  0  0  0  0  0  0
   28.7220   56.0320    8.8950 C   0  0  0  0  0  0  0  0  0  0  0  0
   28.0660   57.1160    9.7250 C   0  0  0  0  0  0  0  0  0  0  0  0
   30.3060   43.6240    9.4990 O   0  0  0  0  0  0  0  0  0  0  0  0
   30.9470   42.7070    8.6160 C   0  0  0  0  0  0  0  0  0  0  0  0
   31.3978   45.2811    7.8059 H   0  0  0  0  0  0  0  0  0  0  0  0
   27.8438   44.3347    9.2087 H   0  0  0  0  0  0  0  0  0  0  0  0
   27.0140   46.6299    9.2765 H   0  0  0  0  0  0  0  0  0  0  0  0
   33.1116   46.7499    8.4275 H   0  0  0  0  0  0  0  0  0  0  0  0
   35.2780   47.5385    9.0823 H   0  0  0  0  0  0  0  0  0  0  0  0
   35.6672   49.6154    5.5227 H   0  0  0  0  0  0  0  0  0  0  0  0
   33.5237   48.8572    4.8243 H   0  0  0  0  0  0  0  0  0  0  0  0
   38.1153   47.8606    8.9684 H   0  0  0  0  0  0  0  0  0  0  0  0
   37.9056   47.3124    7.3335 H   0  0  0  0  0  0  0  0  0  0  0  0
   39.8398   49.2088    8.4451 H   0  0  0  0  0  0  0  0  0  0  0  0
   39.9475   48.1678    7.0168 H   0  0  0  0  0  0  0  0  0  0  0  0
   38.6123   50.5223    4.7681 H   0  0  0  0  0  0  0  0  0  0  0  0
   37.8543   49.0645    5.3624 H   0  0  0  0  0  0  0  0  0  0  0  0
   39.5413   49.0490    4.9075 H   0  0  0  0  0  0  0  0  0  0  0  0
   38.0211   51.6874    6.4935 H   0  0  0  0  0  0  0  0  0  0  0  0
   38.9490   51.5164    8.0075 H   0  0  0  0  0  0  0  0  0  0  0  0
   36.2470   51.0585    7.6336 H   0  0  0  0  0  0  0  0  0  0  0  0
   37.2100   50.7362    9.0510 H   0  0  0  0  0  0  0  0  0  0  0  0
   26.3234   49.1439    6.0171 H   0  0  0  0  0  0  0  0  0  0  0  0
   26.4973   50.4332    4.9142 H   0  0  0  0  0  0  0  0  0  0  0  0
   26.1732   50.6156    7.9416 H   0  0  0  0  0  0  0  0  0  0  0  0
   25.0936   51.2783    6.7211 H   0  0  0  0  0  0  0  0  0  0  0  0
   27.3832   52.2293    7.9347 H   0  0  0  0  0  0  0  0  0  0  0  0
   27.4941   52.5629    5.0440 H   0  0  0  0  0  0  0  0  0  0  0  0
   28.4557   53.4267    6.2579 H   0  0  0  0  0  0  0  0  0  0  0  0
   29.6016   51.5235    6.8794 H   0  0  0  0  0  0  0  0  0  0  0  0
   29.5229   51.3742    5.1640 H   0  0  0  0  0  0  0  0  0  0  0  0
   25.5979   53.3717    8.3504 H   0  0  0  0  0  0  0  0  0  0  0  0
   25.4520   53.8512    6.6551 H   0  0  0  0  0  0  0  0  0  0  0  0
   28.8992   56.3823    7.8996 H   0  0  0  0  0  0  0  0  0  0  0  0
   29.6680   55.7446    9.3041 H   0  0  0  0  0  0  0  0  0  0  0  0
   27.1249   57.3787    9.2889 H   0  0  0  0  0  0  0  0  0  0  0  0
   28.6998   57.9777    9.7515 H   0  0  0  0  0  0  0  0  0  0  0  0
   27.9099   56.7573   10.7209 H   0  0  0  0  0  0  0  0  0  0  0  0
   31.2945   41.8609    9.1712 H   0  0  0  0  0  0  0  0  0  0  0  0
   31.7771   43.1885    8.1428 H   0  0  0  0  0  0  0  0  0  0  0  0
   30.2505   42.3831    7.8710 H   0  0  0  0  0  0  0  0  0  0  0  0
  1  2  1  6  0  0  0
  1 11  1  0  0  0  0
  2  4  1  0  0  0  0
  3  2  1  0  0  0  0
  4  5  2  0  0  0  0
  5 10  1  0  0  0  0
  5  6  1  0  0  0  0
  6  7  2  0  0  0  0
  6 43  1  0  0  0  0
  7  8  1  0  0  0  0
  7 41  1  0  0  0  0
  8 44  1  0  0  0  0
  9  8  1  0  0  0  0
  9 45  1  0  0  0  0
 10  9  2  0  0  0  0
 11 12  1  0  0  0  0
 11 10  1  0  0  0  0
 13 15  1  0  0  0  0
 13  4  1  0  0  0  0
 14 13  1  0  0  0  0
 15 16  2  0  0  0  0
 16 17  1  0  0  0  0
 16 46  1  0  0  0  0
 17 47  1  0  0  0  0
 18 21  1  0  0  0  0
 18 17  2  0  0  0  0
 19 18  1  0  0  0  0
 19 48  1  0  0  0  0
 20 19  2  0  0  0  0
 20 15  1  0  0  0  0
 20 49  1  0  0  0  0
 21 22  1  0  0  0  0
 21 27  1  0  0  0  0
 22 50  1  0  0  0  0
 22 51  1  0  0  0  0
 23 22  1  0  0  0  0
 23 52  1  0  0  0  0
 23 53  1  0  0  0  0
 24 26  1  0  0  0  0
 24 23  1  0  0  0  0
 25 24  1  0  0  0  0
 25 54  1  0  0  0  0
 25 55  1  0  0  0  0
 25 56  1  0  0  0  0
 26 27  1  0  0  0  0
 26 57  1  0  0  0  0
 26 58  1  0  0  0  0
 27 59  1  0  0  0  0
 27 60  1  0  0  0  0
 28 29  1  6  0  0  0
 28  1  1  0  0  0  0
 29 30  1  0  0  0  0
 29 61  1  0  0  0  0
 29 62  1  0  0  0  0
 30 31  1  0  0  0  0
 30 63  1  0  0  0  0
 30 64  1  0  0  0  0
 31 34  1  0  0  0  0
 31 65  1  1  0  0  0
 32 33  1  0  0  0  0
 32 31  1  0  0  0  0
 32 66  1  0  0  0  0
 32 67  1  0  0  0  0
 33 28  1  0  0  0  0
 33 68  1  0  0  0  0
 33 69  1  0  0  0  0
 34 35  1  0  0  0  0
 34 70  1  0  0  0  0
 34 71  1  0  0  0  0
 35 36  1  0  0  0  0
 36 39  1  0  0  0  0
 36 37  1  0  0  0  0
 38 35  2  0  0  0  0
 39 40  1  0  0  0  0
 39 72  1  0  0  0  0
 39 73  1  0  0  0  0
 40 74  1  0  0  0  0
 40 75  1  0  0  0  0
 40 76  1  0  0  0  0
 42 41  1  0  0  0  0
 42 77  1  0  0  0  0
 42 78  1  0  0  0  0
 42 79  1  0  0  0  0
M  END
>  <REMARK>
 VINA RESULT:      -8.2      2.525      3.590
  8 active torsions:
  status: ('A' for Active; 'I' for Inactive)
    1  A    between atoms: C_2  and  N_3 
       I    between atoms: N_3  and  C_5 
    2  A    between atoms: C_5  and  C_7 
    3  A    between atoms: C_7  and  C_8 
    4  A    between atoms: N_11  and  C_12 
    5  A    between atoms: C_15  and  N_16 
    6  A    between atoms: N_16  and  C_18 
    7  A    between atoms: C_21  and  N_22 
    8  A    between atoms: C_33  and  O_34 

>  <TORSDO>
F 8

$$$$
resistance_project/docking/5319283d3047ac55/Q9UM73_WT/docked/molecule_0003_out.pdbqt
 OpenBabel09232609183D

 79 83  0  0  1  0  0  0  0  0999 V2000
   27.7680   50.8200    5.8000 C   0  0  2  0  0  0  0  0  0  0  0  0
   28.0240   50.0030    6.8080 N   0  0  0  0  0  0  0  0  0  0  0  0
   28.9520   49.9680    7.2290 H   0  0  0  0  0  0  0  0  0  0  0  0
   27.0120   49.2040    7.2730 C   0  0  1  0  0  0  0  0  0  0  0  0
   25.7700   49.2950    6.6570 C   0  0  0  0  0  0  0  0  0  0  0  0
   24.7190   48.5030    7.0660 C   0  0  0  0  0  0  0  0  0  0  0  0
   23.5010   48.5660    6.4560 C   0  0  0  0  0  0  0  0  0  0  0  0
   23.2280   49.4200    5.3970 C   0  0  0  0  0  0  0  0  0  0  0  0
   24.2900   50.2340    4.9700 C   0  0  0  0  0  0  0  0  0  0  0  0
   25.5190   50.1500    5.6050 C   0  0  0  0  0  0  0  0  0  0  0  0
   26.5480   50.9120    5.1900 N   0  0  0  0  0  0  0  0  0  0  0  0
   26.4170   51.5620    4.4160 H   0  0  0  0  0  0  0  0  0  0  0  0
   27.3300   48.3540    8.3230 N   0  0  0  0  0  0  0  0  0  0  0  0
   26.7930   48.4910    9.1790 H   0  0  0  0  0  0  0  0  0  0  0  0
   28.2780   47.3460    8.3670 C   0  0  0  0  0  0  0  0  0  0  0  0
   29.2800   47.3310    7.4140 C   0  0  0  0  0  0  0  0  0  0  0  0
   30.2660   46.3600    7.4730 C   0  0  0  0  0  0  0  0  0  0  0  0
   30.3060   45.3850    8.4490 C   0  0  0  0  0  0  0  0  0  0  0  0
   29.2990   45.4170    9.3900 C   0  0  0  0  0  0  0  0  0  0  0  0
   28.3060   46.3610    9.3680 C   0  0  0  0  0  0  0  0  0  0  0  0
   31.3330   44.3760    8.4830 N   0  0  0  0  0  0  0  0  0  0  0  0
   32.4630   44.4670    7.5590 C   0  0  0  0  0  0  0  0  0  0  0  0
   33.6880   43.9150    8.2600 C   0  0  0  0  0  0  0  0  0  0  0  0
   33.5620   43.9340    9.6820 N   0  0  0  0  0  0  0  0  0  0  0  0
   33.6690   45.2600   10.2600 C   0  0  0  0  0  0  0  0  0  0  0  0
   32.4870   43.1470   10.1930 C   0  0  0  0  0  0  0  0  0  0  0  0
   31.1900   43.3100    9.4470 C   0  0  0  0  0  0  0  0  0  0  0  0
   28.7750   51.6860    5.2440 N   0  0  2  0  0  0  0  0  0  0  0  0
   29.6560   52.4740    6.0970 C   0  0  0  0  0  0  0  0  0  0  0  0
   31.0590   51.8820    5.8080 C   0  0  0  0  0  0  0  0  0  0  0  0
   31.3120   51.7980    4.3570 C   0  0  1  0  0  0  0  0  0  0  0  0
   30.2380   52.3460    3.4800 C   0  0  0  0  0  0  0  0  0  0  0  0
   28.8820   51.7590    3.7720 C   0  0  0  0  0  0  0  0  0  0  0  0
   32.6950   51.8810    3.8670 C   0  0  0  0  0  0  0  0  0  0  0  0
   33.4910   50.6900    4.2360 C   0  0  0  0  0  0  0  0  0  0  0  0
   33.0380   49.3500    4.0420 N   0  0  0  0  0  0  0  0  0  0  0  0
   32.1010   49.1430    3.6990 H   0  0  0  0  0  0  0  0  0  0  0  0
   34.6420   50.8100    4.7530 O   0  0  0  0  0  0  0  0  0  0  0  0
   34.0020   48.2860    4.3660 C   0  0  0  0  0  0  0  0  0  0  0  0
   33.3530   47.4470    5.4480 C   0  0  0  0  0  0  0  0  0  0  0  0
   22.4420   47.7640    6.8690 O   0  0  0  0  0  0  0  0  0  0  0  0
   21.3780   48.3270    7.6310 C   0  0  0  0  0  0  0  0  0  0  0  0
   24.8568   47.8477    7.8513 H   0  0  0  0  0  0  0  0  0  0  0  0
   22.2989   49.4550    4.9492 H   0  0  0  0  0  0  0  0  0  0  0  0
   24.1557   50.8921    4.1865 H   0  0  0  0  0  0  0  0  0  0  0  0
   29.2930   48.0391    6.6633 H   0  0  0  0  0  0  0  0  0  0  0  0
   31.0056   46.3659    6.7533 H   0  0  0  0  0  0  0  0  0  0  0  0
   29.2928   44.7051   10.1371 H   0  0  0  0  0  0  0  0  0  0  0  0
   27.5721   46.3482   10.0934 H   0  0  0  0  0  0  0  0  0  0  0  0
   32.2593   43.8936    6.6789 H   0  0  0  0  0  0  0  0  0  0  0  0
   32.6266   45.4846    7.2716 H   0  0  0  0  0  0  0  0  0  0  0  0
   34.5364   44.5054    7.9832 H   0  0  0  0  0  0  0  0  0  0  0  0
   33.8018   42.8947    7.9583 H   0  0  0  0  0  0  0  0  0  0  0  0
   34.4974   45.7750    9.8202 H   0  0  0  0  0  0  0  0  0  0  0  0
   33.8203   45.1776   11.3160 H   0  0  0  0  0  0  0  0  0  0  0  0
   32.7683   45.8056   10.0702 H   0  0  0  0  0  0  0  0  0  0  0  0
   32.7737   42.1172   10.1454 H   0  0  0  0  0  0  0  0  0  0  0  0
   32.3094   43.4838   11.1929 H   0  0  0  0  0  0  0  0  0  0  0  0
   30.9502   42.3983    8.9408 H   0  0  0  0  0  0  0  0  0  0  0  0
   30.4049   43.5469   10.1343 H   0  0  0  0  0  0  0  0  0  0  0  0
   29.3959   52.3568    7.1283 H   0  0  0  0  0  0  0  0  0  0  0  0
   29.5973   53.5243    5.9014 H   0  0  0  0  0  0  0  0  0  0  0  0
   31.8016   52.5084    6.2564 H   0  0  0  0  0  0  0  0  0  0  0  0
   31.1020   50.8946    6.2180 H   0  0  0  0  0  0  0  0  0  0  0  0
   31.2039   50.7422    4.2211 H   0  0  0  0  0  0  0  0  0  0  0  0
   30.1888   53.4053    3.6228 H   0  0  0  0  0  0  0  0  0  0  0  0
   30.4869   52.0896    2.4714 H   0  0  0  0  0  0  0  0  0  0  0  0
   28.8009   50.7813    3.3449 H   0  0  0  0  0  0  0  0  0  0  0  0
   28.0993   52.3558    3.3524 H   0  0  0  0  0  0  0  0  0  0  0  0
   32.6782   51.9673    2.8006 H   0  0  0  0  0  0  0  0  0  0  0  0
   33.1532   52.7354    4.3197 H   0  0  0  0  0  0  0  0  0  0  0  0
   34.9170   48.7101    4.7235 H   0  0  0  0  0  0  0  0  0  0  0  0
   34.2394   47.6976    3.5044 H   0  0  0  0  0  0  0  0  0  0  0  0
   33.1295   48.0649    6.2925 H   0  0  0  0  0  0  0  0  0  0  0  0
   34.0227   46.6668    5.7441 H   0  0  0  0  0  0  0  0  0  0  0  0
   32.4485   47.0169    5.0714 H   0  0  0  0  0  0  0  0  0  0  0  0
   20.6596   47.5668    7.8564 H   0  0  0  0  0  0  0  0  0  0  0  0
   20.9084   49.1055    7.0669 H   0  0  0  0  0  0  0  0  0  0  0  0
   21.7669   48.7315    8.5420 H   0  0  0  0  0  0  0  0  0  0  0  0
  1 11  1  6  0  0  0
  1  2  1  0  0  0  0
  2  3  1  0  0  0  0
  2  4  1  0  0  0  0
  4 13  1  6  0  0  0
  5  6  1  0  0  0  0
  5  4  1  0  0  0  0
  6 43  1  0  0  0  0
  7 41  1  0  0  0  0
  7  6  2  0  0  0  0
  8  7  1  0  0  0  0
  8 44  1  0  0  0  0
  9  8  2  0  0  0  0
  9 10  1  0  0  0  0
  9 45  1  0  0  0  0
 10  5  2  0  0  0  0
 11 10  1  0  0  0  0
 12 11  1  0  0  0  0
 13 15  1  0  0  0  0
 13 14  1  0  0  0  0
 15 20  2  0  0  0  0
 16 17  2  0  0  0  0
 16 15  1  0  0  0  0
 16 46  1  0  0  0  0
 17 18  1  0  0  0  0
 17 47  1  0  0  0  0
 18 21  1  0  0  0  0
 18 19  2  0  0  0  0
 19 48  1  0  0  0  0
 20 19  1  0  0  0  0
 20 49  1  0  0  0  0
 21 27  1  0  0  0  0
 22 23  1  0  0  0  0
 22 21  1  0  0  0  0
 22 50  1  0  0  0  0
 22 51  1  0  0  0  0
 23 24  1  0  0  0  0
 23 52  1  0  0  0  0
 23 53  1  0  0  0  0
 24 26  1  0  0  0  0
 24 25  1  0  0  0  0
 25 54  1  0  0  0  0
 25 55  1  0  0  0  0
 25 56  1  0  0  0  0
 26 57  1  0  0  0  0
 26 58  1  0  0  0  0
 27 26  1  0  0  0  0
 27 59  1  0  0  0  0
 27 60  1  0  0  0  0
 28 33  1  6  0  0  0
 28  1  1  0  0  0  0
 28 29  1  0  0  0  0
 29 61  1  0  0  0  0
 29 62  1  0  0  0  0
 30 29  1  0  0  0  0
 30 63  1  0  0  0  0
 30 64  1  0  0  0  0
 31 30  1  0  0  0  0
 31 65  1  6  0  0  0
 32 33  1  0  0  0  0
 32 31  1  0  0  0  0
 32 66  1  0  0  0  0
 32 67  1  0  0  0  0
 33 68  1  0  0  0  0
 33 69  1  0  0  0  0
 34 35  1  0  0  0  0
 34 31  1  0  0  0  0
 34 70  1  0  0  0  0
 34 71  1  0  0  0  0
 35 38  2  0  0  0  0
 36 35  1  0  0  0  0
 36 39  1  0  0  0  0
 37 36  1  0  0  0  0
 39 40  1  0  0  0  0
 39 72  1  0  0  0  0
 39 73  1  0  0  0  0
 40 74  1  0  0  0  0
 40 75  1  0  0  0  0
 40 76  1  0  0  0  0
 41 42  1  0  0  0  0
 42 77  1  0  0  0  0
 42 78  1  0  0  0  0
 42 79  1  0  0  0  0
M  END
>  <REMARK>
 VINA RESULT:      -8.2      3.241      7.252
  8 active torsions:
  status: ('A' for Active; 'I' for Inactive)
    1  A    between atoms: C_2  and  N_3 
       I    between atoms: N_3  and  C_5 
    2  A    between atoms: C_5  and  C_7 
    3  A    between atoms: C_7  and  C_8 
    4  A    between atoms: N_11  and  C_12 
    5  A    between atoms: C_15  and  N_16 
    6  A    between atoms: N_16  and  C_18 
    7  A    between atoms: C_21  and  N_22 
    8  A    between atoms: C_33  and  O_34 

>  <TORSDO>
F 8

$$$$
resistance_project/docking/5319283d3047ac55/Q9UM73_WT/docked/molecule_0003_out.pdbqt
 OpenBabel09232609183D

 79 83  0  0  1  0  0  0  0  0999 V2000
   31.8480   47.4720    7.5500 C   0  0  2  0  0  0  0  0  0  0  0  0
   31.5680   48.5090    6.7790 N   0  0  0  0  0  0  0  0  0  0  0  0
   32.3100   49.0160    6.2980 H   0  0  0  0  0  0  0  0  0  0  0  0
   30.2570   48.8870    6.6430 C   0  0  0  0  0  0  0  0  0  0  0  0
   29.2920   48.1580    7.3270 C   0  0  0  0  0  0  0  0  0  0  0  0
   27.9600   48.5010    7.2470 C   0  0  0  0  0  0  0  0  0  0  0  0
   27.0040   47.8080    7.9290 C   0  0  0  0  0  0  0  0  0  0  0  0
   27.2930   46.7200    8.7410 C   0  0  0  0  0  0  0  0  0  0  0  0
   28.6460   46.3580    8.8320 C   0  0  0  0  0  0  0  0  0  0  0  0
   29.6000   47.0790    8.1290 C   0  0  0  0  0  0  0  0  0  0  0  0
   30.9010   46.7530    8.2250 N   0  0  0  0  0  0  0  0  0  0  0  0
   31.1840   45.9630    8.8050 H   0  0  0  0  0  0  0  0  0  0  0  0
   30.0140   49.9880    5.8350 N   0  0  0  0  0  0  0  0  0  0  0  0
   30.1740   49.8460    4.8380 H   0  0  0  0  0  0  0  0  0  0  0  0
   29.5820   51.2520    6.1970 C   0  0  0  0  0  0  0  0  0  0  0  0
   28.3610   51.6990    5.7260 C   0  0  0  0  0  0  0  0  0  0  0  0
   27.8890   52.9410    6.1190 C   0  0  0  0  0  0  0  0  0  0  0  0
   28.5840   53.7770    6.9710 C   0  0  0  0  0  0  0  0  0  0  0  0
   29.7980   53.3120    7.4290 C   0  0  0  0  0  0  0  0  0  0  0  0
   30.3000   52.0910    7.0660 C   0  0  0  0  0  0  0  0  0  0  0  0
   28.0810   55.0700    7.3550 N   0  0  0  0  0  0  0  0  0  0  0  0
   27.0180   55.6930    6.5660 C   0  0  0  0  0  0  0  0  0  0  0  0
   26.1430   56.4940    7.5090 C   0  0  0  0  0  0  0  0  0  0  0  0
   26.2510   56.0570    8.8650 N   0  0  0  0  0  0  0  0  0  0  0  0
   25.5940   54.7910    9.1240 C   0  0  0  0  0  0  0  0  0  0  0  0
   27.5590   56.1730    9.4230 C   0  0  0  0  0  0  0  0  0  0  0  0
   28.6640   55.6940    8.5200 C   0  0  0  0  0  0  0  0  0  0  0  0
   33.1970   47.0150    7.7560 N   0  0  2  0  0  0  0  0  0  0  0  0
   34.0050   47.5010    8.8670 C   0  0  0  0  0  0  0  0  0  0  0  0
   34.2300   46.2330    9.7290 C   0  0  0  0  0  0  0  0  0  0  0  0
   34.7060   45.1060    8.9040 C   0  0  1  0  0  0  0  0  0  0  0  0
   34.9410   45.4130    7.4640 C   0  0  0  0  0  0  0  0  0  0  0  0
   33.7460   46.0370    6.7920 C   0  0  0  0  0  0  0  0  0  0  0  0
   35.5480   44.0740    9.5230 C   0  0  0  0  0  0  0  0  0  0  0  0
   34.8040   42.8210    9.7750 C   0  0  0  0  0  0  0  0  0  0  0  0
   35.4370   41.5780   10.0780 N   0  0  0  0  0  0  0  0  0  0  0  0
   36.4510   41.4730   10.0680 H   0  0  0  0  0  0  0  0  0  0  0  0
   33.5380   42.7950    9.7330 O   0  0  0  0  0  0  0  0  0  0  0  0
   34.5410   40.4570   10.4060 C   0  0  0  0  0  0  0  0  0  0  0  0
   35.4410   39.3010   10.7930 C   0  0  0  0  0  0  0  0  0  0  0  0
   25.6600   48.1580    7.8480 O   0  0  0  0  0  0  0  0  0  0  0  0
   25.2870   49.4350    7.3400 C   0  0  0  0  0  0  0  0  0  0  0  0
   27.6795   49.3004    6.6577 H   0  0  0  0  0  0  0  0  0  0  0  0
   26.7541   45.8770    8.3617 H   0  0  0  0  0  0  0  0  0  0  0  0
   28.9300   45.5586    9.4196 H   0  0  0  0  0  0  0  0  0  0  0  0
   27.8048   51.1111    5.0857 H   0  0  0  0  0  0  0  0  0  0  0  0
   26.9750   53.2563    5.7581 H   0  0  0  0  0  0  0  0  0  0  0  0
   30.3486   53.9057    8.0688 H   0  0  0  0  0  0  0  0  0  0  0  0
   31.2140   51.7841    7.4339 H   0  0  0  0  0  0  0  0  0  0  0  0
   26.4344   54.9377    6.0825 H   0  0  0  0  0  0  0  0  0  0  0  0
   27.4369   56.3306    5.8158 H   0  0  0  0  0  0  0  0  0  0  0  0
   25.1241   56.3956    7.1976 H   0  0  0  0  0  0  0  0  0  0  0  0
   26.4717   57.5115    7.4698 H   0  0  0  0  0  0  0  0  0  0  0  0
   24.6246   54.7930    8.6711 H   0  0  0  0  0  0  0  0  0  0  0  0
   25.4941   54.6505   10.1800 H   0  0  0  0  0  0  0  0  0  0  0  0
   26.1784   53.9950    8.7120 H   0  0  0  0  0  0  0  0  0  0  0  0
   27.7357   57.2034    9.6507 H   0  0  0  0  0  0  0  0  0  0  0  0
   27.5785   55.5455   10.2895 H   0  0  0  0  0  0  0  0  0  0  0  0
   29.2666   56.5251    8.2183 H   0  0  0  0  0  0  0  0  0  0  0  0
   29.2762   54.9876    9.0407 H   0  0  0  0  0  0  0  0  0  0  0  0
   33.4821   48.2526    9.4207 H   0  0  0  0  0  0  0  0  0  0  0  0
   34.9190   47.9583    8.5502 H   0  0  0  0  0  0  0  0  0  0  0  0
   33.3066   45.9591   10.1950 H   0  0  0  0  0  0  0  0  0  0  0  0
   34.9738   46.4516   10.4665 H   0  0  0  0  0  0  0  0  0  0  0  0
   33.8109   44.5206    8.8716 H   0  0  0  0  0  0  0  0  0  0  0  0
   35.7659   46.0904    7.3901 H   0  0  0  0  0  0  0  0  0  0  0  0
   35.1392   44.4861    6.9676 H   0  0  0  0  0  0  0  0  0  0  0  0
   33.0152   45.2892    6.5649 H   0  0  0  0  0  0  0  0  0  0  0  0
   34.0175   46.5073    5.8701 H   0  0  0  0  0  0  0  0  0  0  0  0
   35.9205   44.4465   10.4543 H   0  0  0  0  0  0  0  0  0  0  0  0
   36.3452   43.8512    8.8450 H   0  0  0  0  0  0  0  0  0  0  0  0
   33.9457   40.1961    9.5560 H   0  0  0  0  0  0  0  0  0  0  0  0
   33.8687   40.7121   11.1984 H   0  0  0  0  0  0  0  0  0  0  0  0
   36.0983   39.0731    9.9800 H   0  0  0  0  0  0  0  0  0  0  0  0
   34.8426   38.4433   11.0191 H   0  0  0  0  0  0  0  0  0  0  0  0
   36.0176   39.5704   11.6531 H   0  0  0  0  0  0  0  0  0  0  0  0
   24.2210   49.5263    7.3524 H   0  0  0  0  0  0  0  0  0  0  0  0
   25.6420   49.5370    6.3358 H   0  0  0  0  0  0  0  0  0  0  0  0
   25.7177   50.2013    7.9501 H   0  0  0  0  0  0  0  0  0  0  0  0
  1  2  1  1  0  0  0
  1 28  1  0  0  0  0
  1 11  1  0  0  0  0
  3  2  1  0  0  0  0
  4  2  1  0  0  0  0
  4  5  2  0  0  0  0
  5 10  1  0  0  0  0
  6  5  1  0  0  0  0
  6  7  2  0  0  0  0
  6 43  1  0  0  0  0
  7  8  1  0  0  0  0
  8  9  1  0  0  0  0
  8 44  1  0  0  0  0
  9 45  1  0  0  0  0
 10 11  1  0  0  0  0
 10  9  2  0  0  0  0
 11 12  1  0  0  0  0
 13 15  1  0  0  0  0
 13  4  1  0  0  0  0
 14 13  1  0  0  0  0
 15 20  2  0  0  0  0
 16 17  2  0  0  0  0
 16 15  1  0  0  0  0
 16 46  1  0  0  0  0
 17 18  1  0  0  0  0
 17 47  1  0  0  0  0
 18 21  1  0  0  0  0
 18 19  2  0  0  0  0
 19 48  1  0  0  0  0
 20 19  1  0  0  0  0
 20 49  1  0  0  0  0
 21 27  1  0  0  0  0
 22 21  1  0  0  0  0
 22 23  1  0  0  0  0
 22 50  1  0  0  0  0
 22 51  1  0  0  0  0
 23 24  1  0  0  0  0
 23 52  1  0  0  0  0
 23 53  1  0  0  0  0
 24 25  1  0  0  0  0
 24 26  1  0  0  0  0
 25 54  1  0  0  0  0
 25 55  1  0  0  0  0
 25 56  1  0  0  0  0
 26 57  1  0  0  0  0
 26 58  1  0  0  0  0
 27 26  1  0  0  0  0
 27 59  1  0  0  0  0
 27 60  1  0  0  0  0
 28 33  1  6  0  0  0
 28 29  1  0  0  0  0
 29 30  1  0  0  0  0
 29 61  1  0  0  0  0
 29 62  1  0  0  0  0
 30 63  1  0  0  0  0
 30 64  1  0  0  0  0
 31 34  1  0  0  0  0
 31 30  1  0  0  0  0
 31 65  1  6  0  0  0
 32 31  1  0  0  0  0
 32 66  1  0  0  0  0
 32 67  1  0  0  0  0
 33 32  1  0  0  0  0
 33 68  1  0  0  0  0
 33 69  1  0  0  0  0
 34 35  1  0  0  0  0
 34 70  1  0  0  0  0
 34 71  1  0  0  0  0
 35 36  1  0  0  0  0
 36 39  1  0  0  0  0
 37 36  1  0  0  0  0
 38 35  2  0  0  0  0
 39 40  1  0  0  0  0
 39 72  1  0  0  0  0
 39 73  1  0  0  0  0
 40 74  1  0  0  0  0
 40 75  1  0  0  0  0
 40 76  1  0  0  0  0
 41  7  1  0  0  0  0
 42 41  1  0  0  0  0
 42 77  1  0  0  0  0
 42 78  1  0  0  0  0
 42 79  1  0  0  0  0
M  END
>  <REMARK>
 VINA RESULT:      -8.2      3.531     10.151
  8 active torsions:
  status: ('A' for Active; 'I' for Inactive)
    1  A    between atoms: C_2  and  N_3 
       I    between atoms: N_3  and  C_5 
    2  A    between atoms: C_5  and  C_7 
    3  A    between atoms: C_7  and  C_8 
    4  A    between atoms: N_11  and  C_12 
    5  A    between atoms: C_15  and  N_16 
    6  A    between atoms: N_16  and  C_18 
    7  A    between atoms: C_21  and  N_22 
    8  A    between atoms: C_33  and  O_34 

>  <TORSDO>
F 8

$$$$
resistance_project/docking/5319283d3047ac55/Q9UM73_WT/docked/molecule_0003_out.pdbqt
 OpenBabel09232609183D

 79 83  0  0  1  0  0  0  0  0999 V2000
   27.7320   48.3500    7.5380 C   0  0  2  0  0  0  0  0  0  0  0  0
   28.8150   48.3440    6.7790 N   0  0  0  0  0  0  0  0  0  0  0  0
   28.9580   49.0600    6.0670 H   0  0  0  0  0  0  0  0  0  0  0  0
   29.7410   47.3510    6.9720 C   0  0  0  0  0  0  0  0  0  0  0  0
   29.4890   46.4020    7.9550 C   0  0  0  0  0  0  0  0  0  0  0  0
   30.3710   45.3690    8.1820 C   0  0  0  0  0  0  0  0  0  0  0  0
   30.1270   44.4190    9.1290 C   0  0  0  0  0  0  0  0  0  0  0  0
   28.9900   44.4200    9.9270 C   0  0  0  0  0  0  0  0  0  0  0  0
   28.0820   45.4680    9.7070 C   0  0  0  0  0  0  0  0  0  0  0  0
   28.3540   46.4220    8.7370 C   0  0  0  0  0  0  0  0  0  0  0  0
   27.4800   47.4180    8.5060 N   0  0  0  0  0  0  0  0  0  0  0  0
   26.6240   47.4790    9.0560 H   0  0  0  0  0  0  0  0  0  0  0  0
   30.8540   47.3770    6.1440 N   0  0  0  0  0  0  0  0  0  0  0  0
   30.6620   47.5160    5.1520 H   0  0  0  0  0  0  0  0  0  0  0  0
   32.1900   47.2420    6.4800 C   0  0  0  0  0  0  0  0  0  0  0  0
   32.7210   48.0740    7.4480 C   0  0  0  0  0  0  0  0  0  0  0  0
   34.0430   47.9190    7.8340 C   0  0  0  0  0  0  0  0  0  0  0  0
   34.8780   46.9610    7.2960 C   0  0  0  0  0  0  0  0  0  0  0  0
   34.3290   46.1410    6.3330 C   0  0  0  0  0  0  0  0  0  0  0  0
   33.0270   46.2600    5.9230 C   0  0  0  0  0  0  0  0  0  0  0  0
   36.2520   46.8270    7.7010 N   0  0  0  0  0  0  0  0  0  0  0  0
   36.5710   46.1310    8.9480 C   0  0  0  0  0  0  0  0  0  0  0  0
   37.8930   45.4140    8.7610 C   0  0  0  0  0  0  0  0  0  0  0  0
   38.2040   45.1850    7.3870 N   0  0  0  0  0  0  0  0  0  0  0  0
   37.4050   44.1420    6.7730 C   0  0  0  0  0  0  0  0  0  0  0  0
   38.3380   46.3700    6.6030 C   0  0  0  0  0  0  0  0  0  0  0  0
   37.2630   47.3960    6.8400 C   0  0  0  0  0  0  0  0  0  0  0  0
   26.7060   49.3500    7.3960 N   0  0  2  0  0  0  0  0  0  0  0  0
   27.0330   50.7390    7.0970 C   0  0  0  0  0  0  0  0  0  0  0  0
   26.4090   50.9600    5.6950 C   0  0  0  0  0  0  0  0  0  0  0  0
   25.0060   50.5040    5.6590 C   0  0  1  0  0  0  0  0  0  0  0  0
   24.4550   50.0030    6.9510 C   0  0  0  0  0  0  0  0  0  0  0  0
   25.3020   48.9240    7.5740 C   0  0  0  0  0  0  0  0  0  0  0  0
   24.0700   51.1470    4.7280 C   0  0  0  0  0  0  0  0  0  0  0  0
   24.7220   51.5350    3.4580 C   0  0  0  0  0  0  0  0  0  0  0  0
   25.2190   50.5910    2.5090 N   0  0  0  0  0  0  0  0  0  0  0  0
   25.2120   49.5880    2.6930 H   0  0  0  0  0  0  0  0  0  0  0  0
   24.8700   52.7540    3.1480 O   0  0  0  0  0  0  0  0  0  0  0  0
   25.7410   51.1500    1.2510 C   0  0  0  0  0  0  0  0  0  0  0  0
   27.2450   50.9760    1.3080 C   0  0  0  0  0  0  0  0  0  0  0  0
   31.0180   43.3750    9.3550 O   0  0  0  0  0  0  0  0  0  0  0  0
   31.7810   42.8450    8.2750 C   0  0  0  0  0  0  0  0  0  0  0  0
   31.2364   45.3127    7.6225 H   0  0  0  0  0  0  0  0  0  0  0  0
   29.3070   44.4710   10.9477 H   0  0  0  0  0  0  0  0  0  0  0  0
   27.2157   45.5285   10.2646 H   0  0  0  0  0  0  0  0  0  0  0  0
   32.1364   48.8062    7.8806 H   0  0  0  0  0  0  0  0  0  0  0  0
   34.4209   48.5499    8.5580 H   0  0  0  0  0  0  0  0  0  0  0  0
   34.9202   45.4111    5.9055 H   0  0  0  0  0  0  0  0  0  0  0  0
   32.6580   45.6234    5.1994 H   0  0  0  0  0  0  0  0  0  0  0  0
   35.8025   45.4218    9.1746 H   0  0  0  0  0  0  0  0  0  0  0  0
   36.6386   46.8293    9.7559 H   0  0  0  0  0  0  0  0  0  0  0  0
   38.6698   46.0093    9.1935 H   0  0  0  0  0  0  0  0  0  0  0  0
   37.8144   44.4598    9.2387 H   0  0  0  0  0  0  0  0  0  0  0  0
   37.6934   44.0280    5.7489 H   0  0  0  0  0  0  0  0  0  0  0  0
   36.3700   44.4086    6.8246 H   0  0  0  0  0  0  0  0  0  0  0  0
   37.5621   43.2199    7.2925 H   0  0  0  0  0  0  0  0  0  0  0  0
   39.2833   46.8168    6.8304 H   0  0  0  0  0  0  0  0  0  0  0  0
   38.2543   46.0704    5.5792 H   0  0  0  0  0  0  0  0  0  0  0  0
   36.8225   47.6765    5.9061 H   0  0  0  0  0  0  0  0  0  0  0  0
   37.6862   48.2629    7.3029 H   0  0  0  0  0  0  0  0  0  0  0  0
   26.5979   51.3988    7.8183 H   0  0  0  0  0  0  0  0  0  0  0  0
   28.0844   50.9359    7.1225 H   0  0  0  0  0  0  0  0  0  0  0  0
   26.4435   52.0028    5.4577 H   0  0  0  0  0  0  0  0  0  0  0  0
   26.9687   50.3926    4.9811 H   0  0  0  0  0  0  0  0  0  0  0  0
   25.1292   49.6026    5.0958 H   0  0  0  0  0  0  0  0  0  0  0  0
   23.4763   49.6084    6.7740 H   0  0  0  0  0  0  0  0  0  0  0  0
   24.4363   50.8281    7.6321 H   0  0  0  0  0  0  0  0  0  0  0  0
   25.1326   47.9889    7.0823 H   0  0  0  0  0  0  0  0  0  0  0  0
   25.0631   48.7882    8.6081 H   0  0  0  0  0  0  0  0  0  0  0  0
   23.2749   50.4642    4.5124 H   0  0  0  0  0  0  0  0  0  0  0  0
   23.7033   52.0376    5.1941 H   0  0  0  0  0  0  0  0  0  0  0  0
   25.3371   50.6208    0.4133 H   0  0  0  0  0  0  0  0  0  0  0  0
   25.4699   52.1788    1.1374 H   0  0  0  0  0  0  0  0  0  0  0  0
   27.4799   49.9383    1.4216 H   0  0  0  0  0  0  0  0  0  0  0  0
   27.6361   51.5234    2.1401 H   0  0  0  0  0  0  0  0  0  0  0  0
   27.6811   51.3434    0.4026 H   0  0  0  0  0  0  0  0  0  0  0  0
   32.4065   42.0547    8.6343 H   0  0  0  0  0  0  0  0  0  0  0  0
   32.3894   43.6184    7.8548 H   0  0  0  0  0  0  0  0  0  0  0  0
   31.1202   42.4638    7.5248 H   0  0  0  0  0  0  0  0  0  0  0  0
  1  2  1  6  0  0  0
  1 11  1  0  0  0  0
  2  4  1  0  0  0  0
  3  2  1  0  0  0  0
  4  5  2  0  0  0  0
  5  6  1  0  0  0  0
  5 10  1  0  0  0  0
  6  7  2  0  0  0  0
  6 43  1  0  0  0  0
  7 41  1  0  0  0  0
  7  8  1  0  0  0  0
  8 44  1  0  0  0  0
  9  8  1  0  0  0  0
  9 45  1  0  0  0  0
 10  9  2  0  0  0  0
 11 10  1  0  0  0  0
 11 12  1  0  0  0  0
 13 15  1  0  0  0  0
 13  4  1  0  0  0  0
 14 13  1  0  0  0  0
 15 16  2  0  0  0  0
 16 17  1  0  0  0  0
 16 46  1  0  0  0  0
 17 47  1  0  0  0  0
 18 21  1  0  0  0  0
 18 17  2  0  0  0  0
 19 18  1  0  0  0  0
 19 48  1  0  0  0  0
 20 19  2  0  0  0  0
 20 15  1  0  0  0  0
 20 49  1  0  0  0  0
 21 22  1  0  0  0  0
 22 50  1  0  0  0  0
 22 51  1  0  0  0  0
 23 22  1  0  0  0  0
 23 52  1  0  0  0  0
 23 53  1  0  0  0  0
 24 23  1  0  0  0  0
 25 24  1  0  0  0  0
 25 54  1  0  0  0  0
 25 55  1  0  0  0  0
 25 56  1  0  0  0  0
 26 27  1  0  0  0  0
 26 24  1  0  0  0  0
 26 57  1  0  0  0  0
 26 58  1  0  0  0  0
 27 21  1  0  0  0  0
 27 59  1  0  0  0  0
 27 60  1  0  0  0  0
 28 29  1  1  0  0  0
 28  1  1  0  0  0  0
 28 33  1  0  0  0  0
 29 61  1  0  0  0  0
 29 62  1  0  0  0  0
 30 29  1  0  0  0  0
 30 63  1  0  0  0  0
 30 64  1  0  0  0  0
 31 30  1  0  0  0  0
 31 32  1  0  0  0  0
 31 65  1  6  0  0  0
 32 33  1  0  0  0  0
 32 66  1  0  0  0  0
 32 67  1  0  0  0  0
 33 68  1  0  0  0  0
 33 69  1  0  0  0  0
 34 31  1  0  0  0  0
 34 70  1  0  0  0  0
 34 71  1  0  0  0  0
 35 34  1  0  0  0  0
 36 37  1  0  0  0  0
 36 35  1  0  0  0  0
 38 35  2  0  0  0  0
 39 40  1  0  0  0  0
 39 36  1  0  0  0  0
 39 72  1  0  0  0  0
 39 73  1  0  0  0  0
 40 74  1  0  0  0  0
 40 75  1  0  0  0  0
 40 76  1  0  0  0  0
 42 41  1  0  0  0  0
 42 77  1  0  0  0  0
 42 78  1  0  0  0  0
 42 79  1  0  0  0  0
M  END
>  <REMARK>
 VINA RESULT:      -7.9      1.607      2.396
  8 active torsions:
  status: ('A' for Active; 'I' for Inactive)
    1  A    between atoms: C_2  and  N_3 
       I    between atoms: N_3  and  C_5 
    2  A    between atoms: C_5  and  C_7 
    3  A    between atoms: C_7  and  C_8 
    4  A    between atoms: N_11  and  C_12 
    5  A    between atoms: C_15  and  N_16 
    6  A    between atoms: N_16  and  C_18 
    7  A    between atoms: C_21  and  N_22 
    8  A    between atoms: C_33  and  O_34 

>  <TORSDO>
F 8

$$$$
resistance_project/docking/5319283d3047ac55/Q9UM73_WT/docked/molecule_0003_out.pdbqt
 OpenBabel09232609183D

 79 83  0  0  1  0  0  0  0  0999 V2000
   27.9330   48.3060    7.3910 C   0  0  2  0  0  0  0  0  0  0  0  0
   29.0040   48.2280    6.6200 N   0  0  0  0  0  0  0  0  0  0  0  0
   29.1600   48.9050    5.8730 H   0  0  0  0  0  0  0  0  0  0  0  0
   29.9000   47.2140    6.8460 C   0  0  0  0  0  0  0  0  0  0  0  0
   29.6300   46.3210    7.8760 C   0  0  0  0  0  0  0  0  0  0  0  0
   30.4810   45.2710    8.1390 C   0  0  0  0  0  0  0  0  0  0  0  0
   30.2190   44.3740    9.1330 C   0  0  0  0  0  0  0  0  0  0  0  0
   29.0950   44.4500    9.9440 C   0  0  0  0  0  0  0  0  0  0  0  0
   28.2190   45.5170    9.6870 C   0  0  0  0  0  0  0  0  0  0  0  0
   28.5070   46.4150    8.6710 C   0  0  0  0  0  0  0  0  0  0  0  0
   27.6640   47.4290    8.4050 N   0  0  0  0  0  0  0  0  0  0  0  0
   26.8190   47.5440    8.9630 H   0  0  0  0  0  0  0  0  0  0  0  0
   31.0000   47.1650    6.0040 N   0  0  0  0  0  0  0  0  0  0  0  0
   30.8580   46.6750    5.1200 H   0  0  0  0  0  0  0  0  0  0  0  0
   32.2660   47.6900    6.1970 C   0  0  0  0  0  0  0  0  0  0  0  0
   33.3500   46.8310    6.2030 C   0  0  0  0  0  0  0  0  0  0  0  0
   34.6290   47.3430    6.3440 C   0  0  0  0  0  0  0  0  0  0  0  0
   34.8900   48.6920    6.4830 C   0  0  0  0  0  0  0  0  0  0  0  0
   33.7970   49.5310    6.4750 C   0  0  0  0  0  0  0  0  0  0  0  0
   32.5160   49.0660    6.3370 C   0  0  0  0  0  0  0  0  0  0  0  0
   36.2270   49.2020    6.6420 N   0  0  0  0  0  0  0  0  0  0  0  0
   37.1170   49.2630    5.4830 C   0  0  0  0  0  0  0  0  0  0  0  0
   38.0100   50.4770    5.6410 C   0  0  0  0  0  0  0  0  0  0  0  0
   37.4580   51.4540    6.5250 N   0  0  0  0  0  0  0  0  0  0  0  0
   36.3420   52.1880    5.9590 C   0  0  0  0  0  0  0  0  0  0  0  0
   37.2540   50.9980    7.8610 C   0  0  0  0  0  0  0  0  0  0  0  0
   36.6250   49.6340    7.9620 C   0  0  0  0  0  0  0  0  0  0  0  0
   26.9390   49.3320    7.2160 N   0  0  2  0  0  0  0  0  0  0  0  0
   27.2990   50.6750    6.7780 C   0  0  0  0  0  0  0  0  0  0  0  0
   26.6060   50.8010    5.3980 C   0  0  0  0  0  0  0  0  0  0  0  0
   25.1880   50.4020    5.4770 C   0  0  1  0  0  0  0  0  0  0  0  0
   24.6920   50.0390    6.8350 C   0  0  0  0  0  0  0  0  0  0  0  0
   25.5320   48.9820    7.5050 C   0  0  0  0  0  0  0  0  0  0  0  0
   24.2240   51.0020    4.5430 C   0  0  0  0  0  0  0  0  0  0  0  0
   24.8570   51.4040    3.2680 C   0  0  0  0  0  0  0  0  0  0  0  0
   25.3740   50.4710    2.3190 N   0  0  0  0  0  0  0  0  0  0  0  0
   25.3960   49.4690    2.5050 H   0  0  0  0  0  0  0  0  0  0  0  0
   24.9710   52.6260    2.9530 O   0  0  0  0  0  0  0  0  0  0  0  0
   25.8730   51.0400    1.0560 C   0  0  0  0  0  0  0  0  0  0  0  0
   27.3830   50.9400    1.1190 C   0  0  0  0  0  0  0  0  0  0  0  0
   31.0780   43.3120    9.3950 O   0  0  0  0  0  0  0  0  0  0  0  0
   31.8070   42.7070    8.3310 C   0  0  0  0  0  0  0  0  0  0  0  0
   31.3359   45.1601    7.5717 H   0  0  0  0  0  0  0  0  0  0  0  0
   29.4281   44.5372   10.9571 H   0  0  0  0  0  0  0  0  0  0  0  0
   27.3636   45.6322   10.2527 H   0  0  0  0  0  0  0  0  0  0  0  0
   33.2065   45.8139    6.1029 H   0  0  0  0  0  0  0  0  0  0  0  0
   35.4245   46.6856    6.3453 H   0  0  0  0  0  0  0  0  0  0  0  0
   33.9490   50.5467    6.5767 H   0  0  0  0  0  0  0  0  0  0  0  0
   31.7275   49.7318    6.3358 H   0  0  0  0  0  0  0  0  0  0  0  0
   37.7144   48.3765    5.4370 H   0  0  0  0  0  0  0  0  0  0  0  0
   36.5470   49.3361    4.5804 H   0  0  0  0  0  0  0  0  0  0  0  0
   38.1516   50.9256    4.6800 H   0  0  0  0  0  0  0  0  0  0  0  0
   38.9360   50.1454    6.0622 H   0  0  0  0  0  0  0  0  0  0  0  0
   36.5826   52.4890    4.9608 H   0  0  0  0  0  0  0  0  0  0  0  0
   36.1458   53.0545    6.5553 H   0  0  0  0  0  0  0  0  0  0  0  0
   35.4745   51.5619    5.9434 H   0  0  0  0  0  0  0  0  0  0  0  0
   36.6173   51.6982    8.3603 H   0  0  0  0  0  0  0  0  0  0  0  0
   38.2225   50.9223    8.3096 H   0  0  0  0  0  0  0  0  0  0  0  0
   37.3325   48.9416    8.3682 H   0  0  0  0  0  0  0  0  0  0  0  0
   35.7689   49.6766    8.6024 H   0  0  0  0  0  0  0  0  0  0  0  0
   26.9300   51.4120    7.4604 H   0  0  0  0  0  0  0  0  0  0  0  0
   28.3568   50.8289    6.7297 H   0  0  0  0  0  0  0  0  0  0  0  0
   26.6652   51.8174    5.0688 H   0  0  0  0  0  0  0  0  0  0  0  0
   27.1035   50.1523    4.7076 H   0  0  0  0  0  0  0  0  0  0  0  0
   25.2474   49.4506    4.9910 H   0  0  0  0  0  0  0  0  0  0  0  0
   23.6905   49.6729    6.7458 H   0  0  0  0  0  0  0  0  0  0  0  0
   24.7425   50.9197    7.4405 H   0  0  0  0  0  0  0  0  0  0  0  0
   25.3004   48.0162    7.1070 H   0  0  0  0  0  0  0  0  0  0  0  0
   25.3468   48.9452    8.5582 H   0  0  0  0  0  0  0  0  0  0  0  0
   23.4548   50.2877    4.3356 H   0  0  0  0  0  0  0  0  0  0  0  0
   23.8249   51.8817    5.0032 H   0  0  0  0  0  0  0  0  0  0  0  0
   25.4981   50.4821    0.2235 H   0  0  0  0  0  0  0  0  0  0  0  0
   25.5529   52.0532    0.9298 H   0  0  0  0  0  0  0  0  0  0  0  0
   27.6677   49.9163    1.2452 H   0  0  0  0  0  0  0  0  0  0  0  0
   27.7444   51.5152    1.9457 H   0  0  0  0  0  0  0  0  0  0  0  0
   27.8037   51.3178    0.2106 H   0  0  0  0  0  0  0  0  0  0  0  0
   32.4110   41.9134    8.7186 H   0  0  0  0  0  0  0  0  0  0  0  0
   32.4346   43.4391    7.8672 H   0  0  0  0  0  0  0  0  0  0  0  0
   31.1229   42.3142    7.6081 H   0  0  0  0  0  0  0  0  0  0  0  0
  1  2  1  6  0  0  0
  1 11  1  0  0  0  0
  2  4  1  0  0  0  0
  3  2  1  0  0  0  0
  4  5  2  0  0  0  0
  5  6  1  0  0  0  0
  5 10  1  0  0  0  0
  6  7  2  0  0  0  0
  6 43  1  0  0  0  0
  7 41  1  0  0  0  0
  7  8  1  0  0  0  0
  8 44  1  0  0  0  0
  9  8  1  0  0  0  0
  9 45  1  0  0  0  0
 10  9  2  0  0  0  0
 11 10  1  0  0  0  0
 11 12  1  0  0  0  0
 13 15  1  0  0  0  0
 13  4  1  0  0  0  0
 14 13  1  0  0  0  0
 15 16  2  0  0  0  0
 15 20  1  0  0  0  0
 16 17  1  0  0  0  0
 16 46  1  0  0  0  0
 17 18  2  0  0  0  0
 17 47  1  0  0  0  0
 18 21  1  0  0  0  0
 19 18  1  0  0  0  0
 19 48  1  0  0  0  0
 20 19  2  0  0  0  0
 20 49  1  0  0  0  0
 21 27  1  0  0  0  0
 22 23  1  0  0  0  0
 22 21  1  0  0  0  0
 22 50  1  0  0  0  0
 22 51  1  0  0  0  0
 23 24  1  0  0  0  0
 23 52  1  0  0  0  0
 23 53  1  0  0  0  0
 24 26  1  0  0  0  0
 25 24  1  0  0  0  0
 25 54  1  0  0  0  0
 25 55  1  0  0  0  0
 25 56  1  0  0  0  0
 26 27  1  0  0  0  0
 26 57  1  0  0  0  0
 26 58  1  0  0  0  0
 27 59  1  0  0  0  0
 27 60  1  0  0  0  0
 28 29  1  1  0  0  0
 28  1  1  0  0  0  0
 28 33  1  0  0  0  0
 29 61  1  0  0  0  0
 29 62  1  0  0  0  0
 30 31  1  0  0  0  0
 30 29  1  0  0  0  0
 30 63  1  0  0  0  0
 30 64  1  0  0  0  0
 31 32  1  0  0  0  0
 31 65  1  6  0  0  0
 32 33  1  0  0  0  0
 32 66  1  0  0  0  0
 32 67  1  0  0  0  0
 33 68  1  0  0  0  0
 33 69  1  0  0  0  0
 34 31  1  0  0  0  0
 34 70  1  0  0  0  0
 34 71  1  0  0  0  0
 35 34  1  0  0  0  0
 36 37  1  0  0  0  0
 36 35  1  0  0  0  0
 38 35  2  0  0  0  0
 39 40  1  0  0  0  0
 39 36  1  0  0  0  0
 39 72  1  0  0  0  0
 39 73  1  0  0  0  0
 40 74  1  0  0  0  0
 40 75  1  0  0  0  0
 40 76  1  0  0  0  0
 42 41  1  0  0  0  0
 42 77  1  0  0  0  0
 42 78  1  0  0  0  0
 42 79  1  0  0  0  0
M  END
>  <REMARK>
 VINA RESULT:      -7.7      1.906      2.933
  8 active torsions:
  status: ('A' for Active; 'I' for Inactive)
    1  A    between atoms: C_2  and  N_3 
       I    between atoms: N_3  and  C_5 
    2  A    between atoms: C_5  and  C_7 
    3  A    between atoms: C_7  and  C_8 
    4  A    between atoms: N_11  and  C_12 
    5  A    between atoms: C_15  and  N_16 
    6  A    between atoms: N_16  and  C_18 
    7  A    between atoms: C_21  and  N_22 
    8  A    between atoms: C_33  and  O_34 

>  <TORSDO>
F 8

$$$$
resistance_project/docking/5319283d3047ac55/Q9UM73_WT/docked/molecule_0003_out.pdbqt
 OpenBabel09232609183D

 79 83  0  0  1  0  0  0  0  0999 V2000
   28.3370   48.4810    7.0880 C   0  0  2  0  0  0  0  0  0  0  0  0
   29.4560   48.2320    6.4300 N   0  0  0  0  0  0  0  0  0  0  0  0
   29.7560   48.8350    5.6640 H   0  0  0  0  0  0  0  0  0  0  0  0
   30.2040   47.1440    6.8010 C   0  0  0  0  0  0  0  0  0  0  0  0
   29.7420   46.3600    7.8500 C   0  0  0  0  0  0  0  0  0  0  0  0
   30.4380   45.2420    8.2560 C   0  0  0  0  0  0  0  0  0  0  0  0
   29.9860   44.4510    9.2700 C   0  0  0  0  0  0  0  0  0  0  0  0
   28.8100   44.7060    9.9630 C   0  0  0  0  0  0  0  0  0  0  0  0
   28.0900   45.8430    9.5600 C   0  0  0  0  0  0  0  0  0  0  0  0
   28.5710   46.6310    8.5260 C   0  0  0  0  0  0  0  0  0  0  0  0
   27.8780   47.7100    8.1200 N   0  0  0  0  0  0  0  0  0  0  0  0
   27.0050   47.9560    8.5860 H   0  0  0  0  0  0  0  0  0  0  0  0
   31.3630   46.9160    6.0740 N   0  0  0  0  0  0  0  0  0  0  0  0
   31.2800   46.2420    5.3130 H   0  0  0  0  0  0  0  0  0  0  0  0
   32.6170   47.4790    6.2390 C   0  0  0  0  0  0  0  0  0  0  0  0
   33.4240   47.6420    5.1280 C   0  0  0  0  0  0  0  0  0  0  0  0
   34.6620   48.2500    5.2650 C   0  0  0  0  0  0  0  0  0  0  0  0
   35.1460   48.7110    6.4730 C   0  0  0  0  0  0  0  0  0  0  0  0
   34.3250   48.5390    7.5670 C   0  0  0  0  0  0  0  0  0  0  0  0
   33.0950   47.9440    7.4750 C   0  0  0  0  0  0  0  0  0  0  0  0
   36.4410   49.3270    6.5950 N   0  0  0  0  0  0  0  0  0  0  0  0
   37.2900   49.4620    5.4110 C   0  0  0  0  0  0  0  0  0  0  0  0
   38.0860   50.7440    5.5480 C   0  0  0  0  0  0  0  0  0  0  0  0
   37.4830   51.6720    6.4500 N   0  0  0  0  0  0  0  0  0  0  0  0
   36.2950   52.3140    5.9200 C   0  0  0  0  0  0  0  0  0  0  0  0
   37.3550   51.1990    7.7900 C   0  0  0  0  0  0  0  0  0  0  0  0
   36.8410   49.7890    7.9050 C   0  0  0  0  0  0  0  0  0  0  0  0
   27.4880   49.5950    6.7580 N   0  0  2  0  0  0  0  0  0  0  0  0
   27.8980   50.6040    5.7880 C   0  0  0  0  0  0  0  0  0  0  0  0
   26.8740   50.4340    4.6380 C   0  0  0  0  0  0  0  0  0  0  0  0
   25.4920   50.4210    5.1540 C   0  0  1  0  0  0  0  0  0  0  0  0
   25.3470   50.6390    6.6220 C   0  0  0  0  0  0  0  0  0  0  0  0
   26.1820   49.6920    7.4440 C   0  0  0  0  0  0  0  0  0  0  0  0
   24.4020   50.8920    4.2890 C   0  0  0  0  0  0  0  0  0  0  0  0
   23.9060   52.2250    4.6900 C   0  0  0  0  0  0  0  0  0  0  0  0
   22.6470   52.4360    5.3310 N   0  0  0  0  0  0  0  0  0  0  0  0
   21.9870   51.6740    5.4850 H   0  0  0  0  0  0  0  0  0  0  0  0
   24.5940   53.2680    4.4780 O   0  0  0  0  0  0  0  0  0  0  0  0
   22.3590   53.8150    5.7580 C   0  0  0  0  0  0  0  0  0  0  0  0
   22.4960   53.8240    7.2660 C   0  0  0  0  0  0  0  0  0  0  0  0
   30.6890   43.3220    9.6760 O   0  0  0  0  0  0  0  0  0  0  0  0
   32.1120   43.3090    9.6120 C   0  0  0  0  0  0  0  0  0  0  0  0
   31.3214   44.9981    7.7816 H   0  0  0  0  0  0  0  0  0  0  0  0
   29.0590   44.8260   10.9967 H   0  0  0  0  0  0  0  0  0  0  0  0
   27.2063   46.0906   10.0320 H   0  0  0  0  0  0  0  0  0  0  0  0
   33.1065   47.3131    4.2028 H   0  0  0  0  0  0  0  0  0  0  0  0
   35.2497   48.3635    4.4243 H   0  0  0  0  0  0  0  0  0  0  0  0
   34.6491   48.8707    8.4889 H   0  0  0  0  0  0  0  0  0  0  0  0
   32.5143   47.8364    8.3213 H   0  0  0  0  0  0  0  0  0  0  0  0
   37.9556   48.6269    5.3446 H   0  0  0  0  0  0  0  0  0  0  0  0
   36.6902   49.4902    4.5253 H   0  0  0  0  0  0  0  0  0  0  0  0
   38.1636   51.2036    4.5849 H   0  0  0  0  0  0  0  0  0  0  0  0
   39.0472   50.4876    5.9420 H   0  0  0  0  0  0  0  0  0  0  0  0
   36.4808   52.6352    4.9164 H   0  0  0  0  0  0  0  0  0  0  0  0
   36.0470   53.1607    6.5254 H   0  0  0  0  0  0  0  0  0  0  0  0
   35.4810   51.6196    5.9273 H   0  0  0  0  0  0  0  0  0  0  0  0
   36.6789   51.8452    8.3099 H   0  0  0  0  0  0  0  0  0  0  0  0
   38.3392   51.2005    8.2098 H   0  0  0  0  0  0  0  0  0  0  0  0
   37.6133   49.1556    8.2887 H   0  0  0  0  0  0  0  0  0  0  0  0
   36.0030   49.7622    8.5698 H   0  0  0  0  0  0  0  0  0  0  0  0
   27.8408   51.5858    6.2095 H   0  0  0  0  0  0  0  0  0  0  0  0
   28.9114   50.4859    5.4656 H   0  0  0  0  0  0  0  0  0  0  0  0
   26.9826   51.2468    3.9506 H   0  0  0  0  0  0  0  0  0  0  0  0
   27.0631   49.5006    4.1502 H   0  0  0  0  0  0  0  0  0  0  0  0
   25.2779   49.3775    5.0533 H   0  0  0  0  0  0  0  0  0  0  0  0
   24.3190   50.5044    6.8866 H   0  0  0  0  0  0  0  0  0  0  0  0
   25.6877   51.6311    6.8330 H   0  0  0  0  0  0  0  0  0  0  0  0
   25.7150   48.7304    7.4910 H   0  0  0  0  0  0  0  0  0  0  0  0
   26.2937   50.0414    8.4492 H   0  0  0  0  0  0  0  0  0  0  0  0
   24.7603   50.9464    3.2822 H   0  0  0  0  0  0  0  0  0  0  0  0
   23.5907   50.1999    4.3774 H   0  0  0  0  0  0  0  0  0  0  0  0
   21.3654   54.0921    5.4736 H   0  0  0  0  0  0  0  0  0  0  0  0
   23.0274   54.5140    5.3002 H   0  0  0  0  0  0  0  0  0  0  0  0
   21.8153   53.1157    7.6902 H   0  0  0  0  0  0  0  0  0  0  0  0
   22.2717   54.8016    7.6387 H   0  0  0  0  0  0  0  0  0  0  0  0
   23.4978   53.5610    7.5347 H   0  0  0  0  0  0  0  0  0  0  0  0
   32.4762   42.3657    9.9620 H   0  0  0  0  0  0  0  0  0  0  0  0
   32.5038   44.0927   10.2261 H   0  0  0  0  0  0  0  0  0  0  0  0
   32.4249   43.4588    8.5998 H   0  0  0  0  0  0  0  0  0  0  0  0
  1  2  1  6  0  0  0
  1 11  1  0  0  0  0
  2  4  1  0  0  0  0
  3  2  1  0  0  0  0
  4  5  2  0  0  0  0
  5  6  1  0  0  0  0
  5 10  1  0  0  0  0
  6  7  2  0  0  0  0
  6 43  1  0  0  0  0
  7 41  1  0  0  0  0
  7  8  1  0  0  0  0
  8 44  1  0  0  0  0
  9  8  1  0  0  0  0
  9 45  1  0  0  0  0
 10  9  2  0  0  0  0
 11 10  1  0  0  0  0
 11 12  1  0  0  0  0
 13 15  1  0  0  0  0
 13  4  1  0  0  0  0
 14 13  1  0  0  0  0
 15 20  2  0  0  0  0
 16 17  2  0  0  0  0
 16 15  1  0  0  0  0
 16 46  1  0  0  0  0
 17 18  1  0  0  0  0
 17 47  1  0  0  0  0
 18 21  1  0  0  0  0
 18 19  2  0  0  0  0
 19 48  1  0  0  0  0
 20 19  1  0  0  0  0
 20 49  1  0  0  0  0
 21 27  1  0  0  0  0
 22 23  1  0  0  0  0
 22 21  1  0  0  0  0
 22 50  1  0  0  0  0
 22 51  1  0  0  0  0
 23 24  1  0  0  0  0
 23 52  1  0  0  0  0
 23 53  1  0  0  0  0
 24 26  1  0  0  0  0
 25 24  1  0  0  0  0
 25 54  1  0  0  0  0
 25 55  1  0  0  0  0
 25 56  1  0  0  0  0
 26 27  1  0  0  0  0
 26 57  1  0  0  0  0
 26 58  1  0  0  0  0
 27 59  1  0  0  0  0
 27 60  1  0  0  0  0
 28 29  1  1  0  0  0
 28  1  1  0  0  0  0
 28 33  1  0  0  0  0
 29 61  1  0  0  0  0
 29 62  1  0  0  0  0
 30 31  1  0  0  0  0
 30 29  1  0  0  0  0
 30 63  1  0  0  0  0
 30 64  1  0  0  0  0
 31 32  1  0  0  0  0
 31 65  1  6  0  0  0
 32 33  1  0  0  0  0
 32 66  1  0  0  0  0
 32 67  1  0  0  0  0
 33 68  1  0  0  0  0
 33 69  1  0  0  0  0
 34 35  1  0  0  0  0
 34 31  1  0  0  0  0
 34 70  1  0  0  0  0
 34 71  1  0  0  0  0
 35 36  1  0  0  0  0
 36 37  1  0  0  0  0
 36 39  1  0  0  0  0
 38 35  2  0  0  0  0
 39 40  1  0  0  0  0
 39 72  1  0  0  0  0
 39 73  1  0  0  0  0
 40 74  1  0  0  0  0
 40 75  1  0  0  0  0
 40 76  1  0  0  0  0
 42 41  1  0  0  0  0
 42 77  1  0  0  0  0
 42 78  1  0  0  0  0
 42 79  1  0  0  0  0
M  END
>  <REMARK>
 VINA RESULT:      -7.6      1.829      2.360
  8 active torsions:
  status: ('A' for Active; 'I' for Inactive)
    1  A    between atoms: C_2  and  N_3 
       I    between atoms: N_3  and  C_5 
    2  A    between atoms: C_5  and  C_7 
    3  A    between atoms: C_7  and  C_8 
    4  A    between atoms: N_11  and  C_12 
    5  A    between atoms: C_15  and  N_16 
    6  A    between atoms: N_16  and  C_18 
    7  A    between atoms: C_21  and  N_22 
    8  A    between atoms: C_33  and  O_34 

>  <TORSDO>
F 8

$$$$
resistance_project/docking/5319283d3047ac55/Q9UM73_WT/docked/molecule_0003_out.pdbqt
 OpenBabel09232609183D

 79 83  0  0  1  0  0  0  0  0999 V2000
   34.9890   47.5830    7.5890 C   0  0  2  0  0  0  0  0  0  0  0  0
   34.1350   48.0850    6.7140 N   0  0  0  0  0  0  0  0  0  0  0  0
   33.3380   47.5380    6.3890 H   0  0  0  0  0  0  0  0  0  0  0  0
   34.3450   49.3600    6.2530 C   0  0  0  0  0  0  0  0  0  0  0  0
   35.4500   50.0540    6.7310 C   0  0  0  0  0  0  0  0  0  0  0  0
   35.7260   51.3290    6.2900 C   0  0  0  0  0  0  0  0  0  0  0  0
   36.8180   52.0150    6.7340 C   0  0  0  0  0  0  0  0  0  0  0  0
   37.7190   51.4920    7.6510 C   0  0  0  0  0  0  0  0  0  0  0  0
   37.4490   50.1920    8.1100 C   0  0  0  0  0  0  0  0  0  0  0  0
   36.3330   49.5150    7.6420 C   0  0  0  0  0  0  0  0  0  0  0  0
   36.0770   48.2630    8.0610 N   0  0  0  0  0  0  0  0  0  0  0  0
   36.6990   47.8170    8.7350 H   0  0  0  0  0  0  0  0  0  0  0  0
   33.4310   49.8390    5.3270 N   0  0  0  0  0  0  0  0  0  0  0  0
   33.6570   49.6570    4.3490 H   0  0  0  0  0  0  0  0  0  0  0  0
   32.2520   50.5300    5.5480 C   0  0  0  0  0  0  0  0  0  0  0  0
   31.9240   51.5730    4.7010 C   0  0  0  0  0  0  0  0  0  0  0  0
   30.7240   52.2440    4.8750 C   0  0  0  0  0  0  0  0  0  0  0  0
   29.8180   51.9240    5.8660 C   0  0  0  0  0  0  0  0  0  0  0  0
   30.1640   50.8810    6.6990 C   0  0  0  0  0  0  0  0  0  0  0  0
   31.3400   50.1910    6.5610 C   0  0  0  0  0  0  0  0  0  0  0  0
   28.5830   52.6430    6.0380 N   0  0  0  0  0  0  0  0  0  0  0  0
   27.6540   52.2380    7.0920 C   0  0  0  0  0  0  0  0  0  0  0  0
   26.9620   53.4820    7.6120 C   0  0  0  0  0  0  0  0  0  0  0  0
   27.6990   54.6750    7.3400 N   0  0  0  0  0  0  0  0  0  0  0  0
   28.8820   54.8310    8.1640 C   0  0  0  0  0  0  0  0  0  0  0  0
   27.9000   54.9440    5.9530 C   0  0  0  0  0  0  0  0  0  0  0  0
   28.3220   53.7470    5.1430 C   0  0  0  0  0  0  0  0  0  0  0  0
   34.8480   46.2510    8.1160 N   0  0  2  0  0  0  0  0  0  0  0  0
   35.0760   45.9630    9.5270 C   0  0  0  0  0  0  0  0  0  0  0  0
   33.6810   45.5150   10.0320 C   0  0  0  0  0  0  0  0  0  0  0  0
   33.1010   44.4850    9.1490 C   0  0  1  0  0  0  0  0  0  0  0  0
   33.9680   44.0360    8.0230 C   0  0  0  0  0  0  0  0  0  0  0  0
   34.4710   45.1750    7.1750 C   0  0  0  0  0  0  0  0  0  0  0  0
   32.1640   43.5050    9.7150 C   0  0  0  0  0  0  0  0  0  0  0  0
   30.7620   43.7910    9.3410 C   0  0  0  0  0  0  0  0  0  0  0  0
   30.2870   45.0970    9.0110 N   0  0  0  0  0  0  0  0  0  0  0  0
   30.8830   45.9210    9.0840 H   0  0  0  0  0  0  0  0  0  0  0  0
   29.8970   42.8660    9.2940 O   0  0  0  0  0  0  0  0  0  0  0  0
   28.8890   45.1830    8.5580 C   0  0  0  0  0  0  0  0  0  0  0  0
   28.1430   45.9330    9.6430 C   0  0  0  0  0  0  0  0  0  0  0  0
   37.0960   53.3020    6.2860 O   0  0  0  0  0  0  0  0  0  0  0  0
   37.4140   54.3290    7.2220 C   0  0  0  0  0  0  0  0  0  0  0  0
   35.0925   51.7753    5.6084 H   0  0  0  0  0  0  0  0  0  0  0  0
   37.7351   52.1420    8.5008 H   0  0  0  0  0  0  0  0  0  0  0  0
   38.0788   49.7426    8.7929 H   0  0  0  0  0  0  0  0  0  0  0  0
   32.5688   51.8498    3.9442 H   0  0  0  0  0  0  0  0  0  0  0  0
   30.4970   53.0197    4.2333 H   0  0  0  0  0  0  0  0  0  0  0  0
   29.5140   50.6103    7.4535 H   0  0  0  0  0  0  0  0  0  0  0  0
   31.5573   49.4159    7.2067 H   0  0  0  0  0  0  0  0  0  0  0  0
   28.1911   51.7628    7.8861 H   0  0  0  0  0  0  0  0  0  0  0  0
   26.9341   51.5466    6.7065 H   0  0  0  0  0  0  0  0  0  0  0  0
   26.8396   53.3888    8.6709 H   0  0  0  0  0  0  0  0  0  0  0  0
   26.0198   53.5619    7.1113 H   0  0  0  0  0  0  0  0  0  0  0  0
   29.3796   55.7421    7.9047 H   0  0  0  0  0  0  0  0  0  0  0  0
   29.5421   54.0050    8.0003 H   0  0  0  0  0  0  0  0  0  0  0  0
   28.5971   54.8611    9.1949 H   0  0  0  0  0  0  0  0  0  0  0  0
   26.9823   55.3159    5.5476 H   0  0  0  0  0  0  0  0  0  0  0  0
   28.6998   55.6521    5.8916 H   0  0  0  0  0  0  0  0  0  0  0  0
   29.2095   53.9807    4.5929 H   0  0  0  0  0  0  0  0  0  0  0  0
   27.5444   53.4813    4.4577 H   0  0  0  0  0  0  0  0  0  0  0  0
   35.4091   46.8367   10.0472 H   0  0  0  0  0  0  0  0  0  0  0  0
   35.8345   45.2251    9.6855 H   0  0  0  0  0  0  0  0  0  0  0  0
   33.7791   45.1139   11.0191 H   0  0  0  0  0  0  0  0  0  0  0  0
   33.0315   46.3653   10.0339 H   0  0  0  0  0  0  0  0  0  0  0  0
   32.3627   45.0767    8.6493 H   0  0  0  0  0  0  0  0  0  0  0  0
   34.8103   43.5152    8.4283 H   0  0  0  0  0  0  0  0  0  0  0  0
   33.3737   43.4072    7.3934 H   0  0  0  0  0  0  0  0  0  0  0  0
   33.7014   45.5133    6.5131 H   0  0  0  0  0  0  0  0  0  0  0  0
   35.3016   44.8754    6.5706 H   0  0  0  0  0  0  0  0  0  0  0  0
   32.2470   43.5252   10.7816 H   0  0  0  0  0  0  0  0  0  0  0  0
   32.4186   42.5427    9.3225 H   0  0  0  0  0  0  0  0  0  0  0  0
   28.4777   44.2031    8.4335 H   0  0  0  0  0  0  0  0  0  0  0  0
   28.8131   45.6815    7.6143 H   0  0  0  0  0  0  0  0  0  0  0  0
   28.2397   45.4081   10.5704 H   0  0  0  0  0  0  0  0  0  0  0  0
   27.1083   46.0049    9.3800 H   0  0  0  0  0  0  0  0  0  0  0  0
   28.5543   46.9156    9.7447 H   0  0  0  0  0  0  0  0  0  0  0  0
   37.5965   55.2444    6.6988 H   0  0  0  0  0  0  0  0  0  0  0  0
   38.2890   54.0519    7.7719 H   0  0  0  0  0  0  0  0  0  0  0  0
   36.5951   54.4616    7.8979 H   0  0  0  0  0  0  0  0  0  0  0  0
  1  2  1  6  0  0  0
  1 11  1  0  0  0  0
  1 28  1  0  0  0  0
  3  2  1  0  0  0  0
  4  2  1  0  0  0  0
  4  5  2  0  0  0  0
  5 10  1  0  0  0  0
  6  5  1  0  0  0  0
  6  7  2  0  0  0  0
  6 43  1  0  0  0  0
  7  8  1  0  0  0  0
  8  9  1  0  0  0  0
  8 44  1  0  0  0  0
  9 45  1  0  0  0  0
 10 11  1  0  0  0  0
 10  9  2  0  0  0  0
 11 12  1  0  0  0  0
 13 15  1  0  0  0  0
 13  4  1  0  0  0  0
 14 13  1  0  0  0  0
 15 20  2  0  0  0  0
 16 17  2  0  0  0  0
 16 15  1  0  0  0  0
 16 46  1  0  0  0  0
 17 18  1  0  0  0  0
 17 47  1  0  0  0  0
 18 21  1  0  0  0  0
 18 19  2  0  0  0  0
 19 48  1  0  0  0  0
 20 19  1  0  0  0  0
 20 49  1  0  0  0  0
 21 22  1  0  0  0  0
 22 23  1  0  0  0  0
 22 50  1  0  0  0  0
 22 51  1  0  0  0  0
 23 52  1  0  0  0  0
 23 53  1  0  0  0  0
 24 23  1  0  0  0  0
 24 25  1  0  0  0  0
 25 54  1  0  0  0  0
 25 55  1  0  0  0  0
 25 56  1  0  0  0  0
 26 24  1  0  0  0  0
 26 57  1  0  0  0  0
 26 58  1  0  0  0  0
 27 26  1  0  0  0  0
 27 21  1  0  0  0  0
 27 59  1  0  0  0  0
 27 60  1  0  0  0  0
 28 33  1  6  0  0  0
 28 29  1  0  0  0  0
 29 30  1  0  0  0  0
 29 61  1  0  0  0  0
 29 62  1  0  0  0  0
 30 63  1  0  0  0  0
 30 64  1  0  0  0  0
 31 34  1  0  0  0  0
 31 30  1  0  0  0  0
 31 65  1  6  0  0  0
 32 31  1  0  0  0  0
 32 66  1  0  0  0  0
 32 67  1  0  0  0  0
 33 32  1  0  0  0  0
 33 68  1  0  0  0  0
 33 69  1  0  0  0  0
 34 70  1  0  0  0  0
 34 71  1  0  0  0  0
 35 34  1  0  0  0  0
 36 37  1  0  0  0  0
 36 35  1  0  0  0  0
 38 35  2  0  0  0  0
 39 36  1  0  0  0  0
 39 40  1  0  0  0  0
 39 72  1  0  0  0  0
 39 73  1  0  0  0  0
 40 74  1  0  0  0  0
 40 75  1  0  0  0  0
 40 76  1  0  0  0  0
 41  7  1  0  0  0  0
 41 42  1  0  0  0  0
 42 77  1  0  0  0  0
 42 78  1  0  0  0  0
 42 79  1  0  0  0  0
M  END
>  <REMARK>
 VINA RESULT:      -7.6      3.753      9.528
  8 active torsions:
  status: ('A' for Active; 'I' for Inactive)
    1  A    between atoms: C_2  and  N_3 
       I    between atoms: N_3  and  C_5 
    2  A    between atoms: C_5  and  C_7 
    3  A    between atoms: C_7  and  C_8 
    4  A    between atoms: N_11  and  C_12 
    5  A    between atoms: C_15  and  N_16 
    6  A    between atoms: N_16  and  C_18 
    7  A    between atoms: C_21  and  N_22 
    8  A    between atoms: C_33  and  O_34 

>  <TORSDO>
F 8

$$$$
resistance_project/docking/5319283d3047ac55/Q9UM73_WT/docked/molecule_0003_out.pdbqt
 OpenBabel09232609183D

 79 83  0  0  1  0  0  0  0  0999 V2000
   28.2910   50.3650    6.6430 C   0  0  2  0  0  0  0  0  0  0  0  0
   29.3200   49.5450    6.5140 N   0  0  0  0  0  0  0  0  0  0  0  0
   29.2400   48.5620    6.7740 H   0  0  0  0  0  0  0  0  0  0  0  0
   30.4980   50.0470    6.0220 C   0  0  1  0  0  0  0  0  0  0  0  0
   30.5450   51.3950    5.6870 C   0  0  0  0  0  0  0  0  0  0  0  0
   31.7050   51.9620    5.2080 C   0  0  0  0  0  0  0  0  0  0  0  0
   31.7720   53.2880    4.8950 C   0  0  0  0  0  0  0  0  0  0  0  0
   30.6960   54.1540    5.0310 C   0  0  0  0  0  0  0  0  0  0  0  0
   29.5060   53.5880    5.5190 C   0  0  0  0  0  0  0  0  0  0  0  0
   29.4630   52.2380    5.8300 C   0  0  0  0  0  0  0  0  0  0  0  0
   28.3340   51.6920    6.3160 N   0  0  0  0  0  0  0  0  0  0  0  0
   27.5040   52.2710    6.4410 H   0  0  0  0  0  0  0  0  0  0  0  0
   31.5530   49.1530    5.9160 N   0  0  0  0  0  0  0  0  0  0  0  0
   32.2150   49.3400    5.1630 H   0  0  0  0  0  0  0  0  0  0  0  0
   31.8300   48.0410    6.6920 C   0  0  0  0  0  0  0  0  0  0  0  0
   31.3320   46.8130    6.2970 C   0  0  0  0  0  0  0  0  0  0  0  0
   31.6410   45.6800    7.0330 C   0  0  0  0  0  0  0  0  0  0  0  0
   32.4340   45.7080    8.1620 C   0  0  0  0  0  0  0  0  0  0  0  0
   32.9210   46.9420    8.5390 C   0  0  0  0  0  0  0  0  0  0  0  0
   32.6400   48.0860    7.8390 C   0  0  0  0  0  0  0  0  0  0  0  0
   32.7320   44.5210    8.9200 N   0  0  0  0  0  0  0  0  0  0  0  0
   32.4320   43.2080    8.3490 C   0  0  0  0  0  0  0  0  0  0  0  0
   33.4870   42.2340    8.8350 C   0  0  0  0  0  0  0  0  0  0  0  0
   34.6860   42.8850    9.2540 N   0  0  0  0  0  0  0  0  0  0  0  0
   35.4830   43.4030    8.1590 C   0  0  0  0  0  0  0  0  0  0  0  0
   34.5190   43.7880   10.3470 C   0  0  0  0  0  0  0  0  0  0  0  0
   33.3220   44.6930   10.2270 C   0  0  0  0  0  0  0  0  0  0  0  0
   27.0220   49.9230    7.1590 N   0  0  2  0  0  0  0  0  0  0  0  0
   25.8340   50.7620    7.0800 C   0  0  0  0  0  0  0  0  0  0  0  0
   24.8940   49.9640    6.1410 C   0  0  0  0  0  0  0  0  0  0  0  0
   24.7800   48.5580    6.5700 C   0  0  1  0  0  0  0  0  0  0  0  0
   25.5070   48.2040    7.8230 C   0  0  0  0  0  0  0  0  0  0  0  0
   26.9640   48.5850    7.7870 C   0  0  0  0  0  0  0  0  0  0  0  0
   23.5480   47.8160    6.2690 C   0  0  0  0  0  0  0  0  0  0  0  0
   22.3650   48.4030    6.9350 C   0  0  0  0  0  0  0  0  0  0  0  0
   21.4150   49.2310    6.2630 N   0  0  0  0  0  0  0  0  0  0  0  0
   21.5430   49.5200    5.2940 H   0  0  0  0  0  0  0  0  0  0  0  0
   22.1360   48.1910    8.1630 O   0  0  0  0  0  0  0  0  0  0  0  0
   20.2410   49.6420    7.0510 C   0  0  0  0  0  0  0  0  0  0  0  0
   20.4190   51.1210    7.3280 C   0  0  0  0  0  0  0  0  0  0  0  0
   32.9450   53.8600    4.4140 O   0  0  0  0  0  0  0  0  0  0  0  0
   33.0870   55.2770    4.3850 C   0  0  0  0  0  0  0  0  0  0  0  0
   32.5417   51.3709    5.0831 H   0  0  0  0  0  0  0  0  0  0  0  0
   30.7657   55.1546    4.7881 H   0  0  0  0  0  0  0  0  0  0  0  0
   28.6670   54.1755    5.6454 H   0  0  0  0  0  0  0  0  0  0  0  0
   30.7338   46.7406    5.4592 H   0  0  0  0  0  0  0  0  0  0  0  0
   31.2601   44.7727    6.7221 H   0  0  0  0  0  0  0  0  0  0  0  0
   33.5183   47.0061    9.3781 H   0  0  0  0  0  0  0  0  0  0  0  0
   33.0267   48.9884    8.1571 H   0  0  0  0  0  0  0  0  0  0  0  0
   31.4639   42.8849    8.6703 H   0  0  0  0  0  0  0  0  0  0  0  0
   32.4360   43.2577    7.2802 H   0  0  0  0  0  0  0  0  0  0  0  0
   33.7238   41.5601    8.0383 H   0  0  0  0  0  0  0  0  0  0  0  0
   33.0856   41.7189    9.6826 H   0  0  0  0  0  0  0  0  0  0  0  0
   35.5548   42.6634    7.3891 H   0  0  0  0  0  0  0  0  0  0  0  0
   36.4630   43.6444    8.5142 H   0  0  0  0  0  0  0  0  0  0  0  0
   35.0193   44.2834    7.7657 H   0  0  0  0  0  0  0  0  0  0  0  0
   35.3951   44.3986   10.4138 H   0  0  0  0  0  0  0  0  0  0  0  0
   34.3624   43.1876   11.2187 H   0  0  0  0  0  0  0  0  0  0  0  0
   32.6050   44.4413   10.9803 H   0  0  0  0  0  0  0  0  0  0  0  0
   33.6241   45.7113   10.3562 H   0  0  0  0  0  0  0  0  0  0  0  0
   25.3914   50.8912    8.0456 H   0  0  0  0  0  0  0  0  0  0  0  0
   26.0421   51.7490    6.7231 H   0  0  0  0  0  0  0  0  0  0  0  0
   23.9229   50.4131    6.1553 H   0  0  0  0  0  0  0  0  0  0  0  0
   25.3046   49.9846    5.1531 H   0  0  0  0  0  0  0  0  0  0  0  0
   25.3800   48.0948    5.8148 H   0  0  0  0  0  0  0  0  0  0  0  0
   25.4348   47.1469    7.9718 H   0  0  0  0  0  0  0  0  0  0  0  0
   25.0529   48.7523    8.6218 H   0  0  0  0  0  0  0  0  0  0  0  0
   27.3627   48.6228    8.7792 H   0  0  0  0  0  0  0  0  0  0  0  0
   27.5418   47.8703    7.2391 H   0  0  0  0  0  0  0  0  0  0  0  0
   23.6645   46.8056    6.6013 H   0  0  0  0  0  0  0  0  0  0  0  0
   23.3866   47.8624    5.2123 H   0  0  0  0  0  0  0  0  0  0  0  0
   20.1997   49.0944    7.9693 H   0  0  0  0  0  0  0  0  0  0  0  0
   19.3295   49.4494    6.5247 H   0  0  0  0  0  0  0  0  0  0  0  0
   21.3377   51.2773    7.8539 H   0  0  0  0  0  0  0  0  0  0  0  0
   19.6028   51.4731    7.9235 H   0  0  0  0  0  0  0  0  0  0  0  0
   20.4423   51.6570    6.4022 H   0  0  0  0  0  0  0  0  0  0  0  0
   34.0470   55.5312    3.9867 H   0  0  0  0  0  0  0  0  0  0  0  0
   32.9990   55.6647    5.3784 H   0  0  0  0  0  0  0  0  0  0  0  0
   32.3216   55.6996    3.7681 H   0  0  0  0  0  0  0  0  0  0  0  0
  1 11  1  1  0  0  0
  1 28  1  0  0  0  0
  2  1  1  0  0  0  0
  2  3  1  0  0  0  0
  4 13  1  1  0  0  0
  4  2  1  0  0  0  0
  5 10  2  0  0  0  0
  5  4  1  0  0  0  0
  6  5  1  0  0  0  0
  6 43  1  0  0  0  0
  7  8  1  0  0  0  0
  7  6  2  0  0  0  0
  8  9  2  0  0  0  0
  8 44  1  0  0  0  0
  9 10  1  0  0  0  0
  9 45  1  0  0  0  0
 10 11  1  0  0  0  0
 11 12  1  0  0  0  0
 13 15  1  0  0  0  0
 14 13  1  0  0  0  0
 15 20  1  0  0  0  0
 16 15  2  0  0  0  0
 16 17  1  0  0  0  0
 16 46  1  0  0  0  0
 17 18  2  0  0  0  0
 17 47  1  0  0  0  0
 18 19  1  0  0  0  0
 18 21  1  0  0  0  0
 19 48  1  0  0  0  0
 20 19  2  0  0  0  0
 20 49  1  0  0  0  0
 21 27  1  0  0  0  0
 22 23  1  0  0  0  0
 22 21  1  0  0  0  0
 22 50  1  0  0  0  0
 22 51  1  0  0  0  0
 23 24  1  0  0  0  0
 23 52  1  0  0  0  0
 23 53  1  0  0  0  0
 24 26  1  0  0  0  0
 25 24  1  0  0  0  0
 25 54  1  0  0  0  0
 25 55  1  0  0  0  0
 25 56  1  0  0  0  0
 26 57  1  0  0  0  0
 26 58  1  0  0  0  0
 27 26  1  0  0  0  0
 27 59  1  0  0  0  0
 27 60  1  0  0  0  0
 28 29  1  1  0  0  0
 28 33  1  0  0  0  0
 29 61  1  0  0  0  0
 29 62  1  0  0  0  0
 30 31  1  0  0  0  0
 30 29  1  0  0  0  0
 30 63  1  0  0  0  0
 30 64  1  0  0  0  0
 31 32  1  0  0  0  0
 31 65  1  6  0  0  0
 32 66  1  0  0  0  0
 32 67  1  0  0  0  0
 33 32  1  0  0  0  0
 33 68  1  0  0  0  0
 33 69  1  0  0  0  0
 34 31  1  0  0  0  0
 34 35  1  0  0  0  0
 34 70  1  0  0  0  0
 34 71  1  0  0  0  0
 35 38  2  0  0  0  0
 36 35  1  0  0  0  0
 36 39  1  0  0  0  0
 37 36  1  0  0  0  0
 39 40  1  0  0  0  0
 39 72  1  0  0  0  0
 39 73  1  0  0  0  0
 40 74  1  0  0  0  0
 40 75  1  0  0  0  0
 40 76  1  0  0  0  0
 41  7  1  0  0  0  0
 42 41  1  0  0  0  0
 42 77  1  0  0  0  0
 42 78  1  0  0  0  0
 42 79  1  0  0  0  0
M  END
>  <REMARK>
 VINA RESULT:      -7.5      3.356      5.553
  8 active torsions:
  status: ('A' for Active; 'I' for Inactive)
    1  A    between atoms: C_2  and  N_3 
       I    between atoms: N_3  and  C_5 
    2  A    between atoms: C_5  and  C_7 
    3  A    between atoms: C_7  and  C_8 
    4  A    between atoms: N_11  and  C_12 
    5  A    between atoms: C_15  and  N_16 
    6  A    between atoms: N_16  and  C_18 
    7  A    between atoms: C_21  and  N_22 
    8  A    between atoms: C_33  and  O_34 

>  <TORSDO>
F 8

$$$$
