@<TRIPOS>MOLECULE
*****
 30 34 0 0 0
SMALL
GASTEIGER

@<TRIPOS>ATOM
      1 C          -8.3237    2.9434    0.4602 C.3     1  UNL1        0.0050
      2 C          -7.1916    2.5175    1.3663 C.3     1  UNL1        0.0264
      3 C          -6.6205    1.2031    0.9167 C.ar    1  UNL1       -0.0209
      4 C          -7.1913    0.0687    1.4556 C.ar    1  UNL1       -0.0042
      5 C          -6.7142   -1.1724    1.0852 C.ar    1  UNL1        0.0010
      6 C          -5.6763   -1.2940    0.1850 C.ar    1  UNL1        0.0166
      7 C          -5.1368   -0.1357   -0.3276 C.ar    1  UNL1        0.0747
      8 N          -4.0665   -0.2683   -1.2557 N.am    1  UNL1       -0.1607
      9 C          -3.6157    0.8718   -2.0043 C.2     1  UNL1        0.3477
     10 O          -4.1858    1.9924   -1.9270 O.2     1  UNL1       -0.2484
     11 N          -2.4819    0.6582   -2.8417 N.am    1  UNL1       -0.1607
     12 C          -2.0119    1.7375   -3.6373 C.ar    1  UNL1        0.0747
     13 C          -2.7895    2.8350   -3.8479 C.ar    1  UNL1        0.0124
     14 C          -2.3855    3.9358   -4.6235 C.ar    1  UNL1       -0.0205
     15 C          -1.1340    3.9005   -5.2012 C.ar    1  UNL1       -0.0035
     16 C          -0.3859    2.7817   -4.9653 C.ar    1  UNL1        0.0010
     17 C          -0.7633    1.7068   -4.2162 C.ar    1  UNL1        0.0166
     18 C          -0.6447    5.0377   -6.0367 C.ar    1  UNL1        0.0065
     19 C          -1.5786    6.0541   -6.1298 C.ar    1  UNL1        0.0091
     20 C          -2.9316    6.1293   -5.5246 C.3     1  UNL1        0.0377
     21 C          -3.3556    5.0136   -4.7318 C.3     1  UNL1        0.0316
     22 S          -0.7682    7.3166   -7.1846 S.2     1  UNL1       -0.0722
     23 C           0.7258    6.3673   -7.3941 C.ar    1  UNL1        0.1149
     24 C           0.5185    5.1984   -6.6762 C.ar    1  UNL1        0.0588
     25 C           1.6569    4.3538   -6.7716 C.ar    1  UNL1        0.1733
     26 N           1.7698    3.1096   -6.1666 N.pl3   1  UNL1       -0.1071
     27 N           2.7316    4.7631   -7.5006 N.ar    1  UNL1       -0.2057
     28 C           2.8267    5.9169   -8.1570 C.ar    1  UNL1        0.2006
     29 N           1.7448    6.7418   -8.0781 N.ar    1  UNL1       -0.2173
     30 C          -5.5831    1.1272    0.0152 C.ar    1  UNL1        0.0124
@<TRIPOS>BOND
     1     1     2    1
     2     2     3    1
     3     3     4   ar
     4     4     5   ar
     5     5     6   ar
     6     6     7   ar
     7     7     8    1
     8     8     9   am
     9     9    10    2
    10     9    11   am
    11    11    12    1
    12    12    13   ar
    13    13    14   ar
    14    14    15   ar
    15    15    16   ar
    16    16    17   ar
    17    15    18    1
    18    18    19   ar
    19    19    20    1
    20    20    21    1
    21    19    22   ar
    22    22    23   ar
    23    23    24   ar
    24    24    25   ar
    25    25    26    1
    26    25    27   ar
    27    27    28   ar
    28    28    29   ar
    29     7    30   ar
    30    30     3   ar
    31    17    12   ar
    32    24    18   ar
    33    21    14    1
    34    29    23   ar
