@<TRIPOS>MOLECULE
*****
 40 44 0 0 0
SMALL
GASTEIGER

@<TRIPOS>ATOM
      1 C           8.5126    2.5840    3.7081 C.3     1  UNL1        0.2560
      2 O           7.6383    1.7252    2.9748 O.3     1  UNL1       -0.4413
      3 C           7.0454    2.2176    1.8075 C.2     1  UNL1        0.3414
      4 O           7.2460    3.3657    1.3633 O.2     1  UNL1       -0.2449
      5 C           6.1527    1.3191    1.0974 C.ar    1  UNL1        0.0769
      6 C           5.3984    1.7959    0.0453 C.ar    1  UNL1        0.0062
      7 C           4.5398    0.9619   -0.6482 C.ar    1  UNL1       -0.0019
      8 C           4.3858   -0.3755   -0.3379 C.ar    1  UNL1        0.0072
      9 C           5.1502   -0.8410    0.7211 C.ar    1  UNL1        0.0704
     10 C           6.0096   -0.0154    1.4189 C.ar    1  UNL1        0.0227
     11 N           4.8858   -2.2222    0.9186 N.am    1  UNL1       -0.1789
     12 C           3.9214   -2.6599   -0.0442 C.2     1  UNL1        0.2549
     13 O           3.4823   -3.8387   -0.1342 O.2     1  UNL1       -0.2722
     14 C           3.5474   -1.4930   -0.8938 C.3     1  UNL1        0.1419
     15 C           2.0982   -1.1562   -0.7503 C.2     1  UNL1        0.0715
     16 N           1.2650   -2.0206   -1.2156 N.2     1  UNL1       -0.2489
     17 C           1.5982   -3.3146   -1.6595 C.ar    1  UNL1        0.0810
     18 C           1.7357   -4.3843   -0.7713 C.ar    1  UNL1        0.0204
     19 C           2.0542   -5.6198   -1.2637 C.ar    1  UNL1        0.0164
     20 C           2.2477   -5.8545   -2.6189 C.ar    1  UNL1        0.0540
     21 N           2.5628   -7.1656   -3.1157 N.am    1  UNL1       -0.2557
     22 C           1.5764   -7.7813   -3.9752 C.3     1  UNL1        0.1201
     23 C           3.7852   -7.7633   -2.7379 C.2     1  UNL1        0.2458
     24 O           4.0777   -8.8558   -3.3397 O.2     1  UNL1       -0.2730
     25 C           4.7334   -7.2722   -1.7512 C.3     1  UNL1        0.1591
     26 N           5.9259   -7.9937   -1.5555 N.3     1  UNL1       -0.2625
     27 C           6.6775   -7.7261   -0.3693 C.3     1  UNL1        0.0900
     28 C           7.2168   -9.0720    0.1217 C.3     1  UNL1        0.0897
     29 N           8.1484   -9.6238   -0.8604 N.3     1  UNL1       -0.2691
     30 C           9.3215   -8.7804   -0.9900 C.3     1  UNL1        0.0897
     31 C           7.4902   -9.7018   -2.1550 C.3     1  UNL1        0.0897
     32 C           6.0205   -9.3172   -2.0411 C.3     1  UNL1        0.0900
     33 C           2.1009   -4.7667   -3.4503 C.ar    1  UNL1        0.0164
     34 C           1.7807   -3.4933   -3.0211 C.ar    1  UNL1        0.0204
     35 C           1.7034    0.0881   -0.1029 C.ar    1  UNL1        0.0143
     36 C           0.5769    0.7741   -0.5166 C.ar    1  UNL1        0.0012
     37 C           0.2215    1.9448    0.1003 C.ar    1  UNL1        0.0000
     38 C           0.9676    2.4503    1.1261 C.ar    1  UNL1        0.0000
     39 C           2.0803    1.7617    1.5261 C.ar    1  UNL1        0.0000
     40 C           2.4679    0.5827    0.9297 C.ar    1  UNL1        0.0012
@<TRIPOS>BOND
     1     1     2    1
     2     2     3    1
     3     3     4    2
     4     3     5    1
     5     5     6   ar
     6     6     7   ar
     7     7     8   ar
     8     8     9   ar
     9     9    10   ar
    10     9    11    1
    11    11    12   am
    12    12    13    2
    13    12    14    1
    14    14    15    1
    15    15    16    2
    16    16    17    1
    17    17    18   ar
    18    18    19   ar
    19    19    20   ar
    20    20    21    1
    21    21    22    1
    22    21    23   am
    23    23    24    2
    24    23    25    1
    25    25    26    1
    26    26    27    1
    27    27    28    1
    28    28    29    1
    29    29    30    1
    30    29    31    1
    31    31    32    1
    32    20    33   ar
    33    33    34   ar
    34    15    35    1
    35    35    36   ar
    36    36    37   ar
    37    37    38   ar
    38    38    39   ar
    39    39    40   ar
    40    10     5   ar
    41    34    17   ar
    42    40    35   ar
    43    14     8    1
    44    32    26    1
