@<TRIPOS>MOLECULE
*****
 35 39 0 0 0
SMALL
GASTEIGER

@<TRIPOS>ATOM
      1 O          -4.1684    2.5450    2.2528 O.co2   1  UNL1       -0.2415
      2 C          -3.6650    3.4463    1.5511 C.2     1  UNL1        0.4085
      3 O          -4.0209    4.7851    1.7106 O.co2   1  UNL1       -0.2415
      4 C          -2.6495    3.1595    0.4941 C.3     1  UNL1        0.3199
      5 O          -2.1240    1.8628    0.6242 O.3     1  UNL1       -0.4478
      6 C          -1.4212    1.2204   -0.3854 C.ar    1  UNL1        0.2252
      7 C          -1.6570   -0.1185   -0.6224 C.ar    1  UNL1        0.0534
      8 C          -2.6201   -0.9016    0.1452 C.ar    1  UNL1        0.0089
      9 C          -3.5338   -1.7121   -0.4895 C.ar    1  UNL1        0.0363
     10 C          -4.4646   -2.4707    0.2128 C.ar    1  UNL1        0.1517
     11 N          -5.3492   -3.2635   -0.5656 N.pl3   1  UNL1       -0.1941
     12 C          -6.3753   -4.0816   -0.0723 C.ar    1  UNL1        0.0722
     13 C          -6.9595   -5.0133   -0.9349 C.ar    1  UNL1        0.0178
     14 C          -7.9788   -5.8453   -0.4926 C.ar    1  UNL1        0.0159
     15 C          -8.4389   -5.7791    0.7915 C.ar    1  UNL1        0.0481
     16 N          -9.4822   -6.6489    1.1996 N.pl3   1  UNL1       -0.3028
     17 C          -9.7615   -6.9261    2.6145 C.3     1  UNL1        0.1231
     18 C          -9.7257   -8.4564    2.7085 C.3     1  UNL1        0.1636
     19 O         -10.7951   -8.9314    1.9724 O.3     1  UNL1       -0.3501
     20 C         -10.7222   -8.7060    0.6201 C.3     1  UNL1        0.1636
     21 C         -10.3305   -7.3120    0.2298 C.3     1  UNL1        0.1231
     22 C          -7.8872   -4.8808    1.6515 C.ar    1  UNL1        0.0159
     23 C          -6.8644   -4.0417    1.2179 C.ar    1  UNL1        0.0178
     24 N          -4.4928   -2.4281    1.5574 N.ar    1  UNL1       -0.2274
     25 C          -3.6035   -1.6377    2.2060 C.ar    1  UNL1        0.1004
     26 C          -2.6658   -0.8718    1.5315 C.ar    1  UNL1        0.0209
     27 C          -0.9453   -0.7178   -1.6257 C.ar    1  UNL1        0.0061
     28 C          -0.0304    0.0132   -2.3596 C.ar    1  UNL1        0.0179
     29 C           0.6865   -0.6033   -3.3749 C.ar    1  UNL1        0.0020
     30 C           1.6101    0.1474   -4.1111 C.ar    1  UNL1        0.0068
     31 C           1.7919    1.4902   -3.8134 C.ar    1  UNL1        0.0361
     32 BR          3.0550    2.4617   -4.8405 Br      1  UNL1       -0.0489
     33 C           1.0750    2.1118   -2.7961 C.ar    1  UNL1        0.0259
     34 C           0.1560    1.3605   -2.0652 C.ar    1  UNL1        0.0849
     35 N          -0.5411    1.9559   -1.0793 N.ar    1  UNL1       -0.2117
@<TRIPOS>BOND
     1     1     2   ar
     2     2     3   ar
     3     2     4    1
     4     4     5    1
     5     5     6    1
     6     6     7   ar
     7     7     8    1
     8     8     9   ar
     9     9    10   ar
    10    10    11    1
    11    11    12    1
    12    12    13   ar
    13    13    14   ar
    14    14    15   ar
    15    15    16    1
    16    16    17    1
    17    17    18    1
    18    18    19    1
    19    19    20    1
    20    20    21    1
    21    15    22   ar
    22    22    23   ar
    23    10    24   ar
    24    24    25   ar
    25    25    26   ar
    26     7    27   ar
    27    27    28   ar
    28    28    29   ar
    29    29    30   ar
    30    30    31   ar
    31    31    32    1
    32    31    33   ar
    33    33    34   ar
    34    34    35   ar
    35    35     6   ar
    36    26     8   ar
    37    34    28   ar
    38    23    12   ar
    39    21    16    1
