@<TRIPOS>MOLECULE
*****
 38 42 0 0 0
SMALL
GASTEIGER

@<TRIPOS>ATOM
      1 C          12.8031    1.1430    2.0808 C.3     1  UNL1        0.0085
      2 C          12.1107    1.8538    0.9264 C.3     1  UNL1        0.0674
      3 C          10.6647    1.5548    0.9935 C.ar    1  UNL1        0.1558
      4 C           9.7162    2.4541    1.4297 C.ar    1  UNL1        0.0751
      5 C           8.5079    1.8091    1.3435 C.ar    1  UNL1        0.1972
      6 N           7.2767    2.4165    1.7095 N.am    1  UNL1       -0.1384
      7 C           7.1402    3.6092    2.4453 C.2     1  UNL1        0.3492
      8 O           8.1843    4.2376    2.7632 O.2     1  UNL1       -0.2484
      9 N           5.8430    4.0428    2.7914 N.am    1  UNL1       -0.1606
     10 C           5.5963    5.1495    3.6513 C.ar    1  UNL1        0.0750
     11 C           6.7023    5.8703    4.0609 C.ar    1  UNL1        0.0167
     12 C           6.5597    6.9591    4.8969 C.ar    1  UNL1        0.0019
     13 C           5.2738    7.3150    5.3189 C.ar    1  UNL1        0.0077
     14 C           5.2144    8.4843    6.2058 C.ar    1  UNL1        0.0513
     15 C           4.3893    9.2743    6.7398 C.ar    1  UNL1        0.1074
     16 N           4.7633   10.2560    7.5189 N.ar    1  UNL1       -0.2210
     17 C           5.8735   10.5466    7.8324 C.ar    1  UNL1        0.1848
     18 N           6.6167   11.4791    8.6064 N.pl3   1  UNL1       -0.1696
     19 C           6.0475   12.3890    9.5338 C.ar    1  UNL1        0.1578
     20 N           6.6391   13.5437    9.9026 N.ar    1  UNL1       -0.2141
     21 C           6.0577   14.3746   10.7911 C.ar    1  UNL1        0.1424
     22 C           6.7145   15.6607   11.2033 C.3     1  UNL1        0.0738
     23 N           4.8651   14.0850   11.3442 N.ar    1  UNL1       -0.2159
     24 C           4.2671   12.9407   10.9855 C.ar    1  UNL1        0.1360
     25 N           2.9909   12.6174   11.5736 N.pl3   1  UNL1       -0.2903
     26 C           2.3537   11.3614   11.2867 C.3     1  UNL1        0.1095
     27 C           0.8934   11.5959   10.9974 C.3     1  UNL1        0.0939
     28 N           0.2371   12.4567   11.9363 N.3     1  UNL1       -0.2698
     29 C          -0.6452   13.4264   11.3586 C.3     1  UNL1        0.0722
     30 C           0.0905   14.5314   10.6330 C.3     1  UNL1        0.0188
     31 C           1.0882   12.9739   12.9764 C.3     1  UNL1        0.0939
     32 C           2.3554   13.5858   12.4639 C.3     1  UNL1        0.1095
     33 C           4.8388   12.0730   10.0800 C.ar    1  UNL1        0.0705
     34 S           6.8368    9.1967    6.8829 S.2     1  UNL1       -0.0497
     35 C           4.1554    6.6154    4.9264 C.ar    1  UNL1        0.0019
     36 C           4.3367    5.5151    4.0772 C.ar    1  UNL1        0.0167
     37 N           8.7539    0.5731    0.8712 N.ar    1  UNL1       -0.0603
     38 O          10.0266    0.4730    0.6825 O.2     1  UNL1       -0.3565
@<TRIPOS>BOND
     1     1     2    1
     2     2     3    1
     3     3     4   ar
     4     4     5   ar
     5     5     6    1
     6     6     7   am
     7     7     8    2
     8     7     9   am
     9     9    10    1
    10    10    11   ar
    11    11    12   ar
    12    12    13   ar
    13    13    14    1
    14    14    15   ar
    15    15    16   ar
    16    16    17   ar
    17    17    18    1
    18    18    19    1
    19    19    20   ar
    20    20    21   ar
    21    21    22    1
    22    21    23   ar
    23    23    24   ar
    24    24    25    1
    25    25    26    1
    26    26    27    1
    27    27    28    1
    28    28    29    1
    29    29    30    1
    30    28    31    1
    31    31    32    1
    32    24    33   ar
    33    17    34   ar
    34    13    35   ar
    35    35    36   ar
    36     5    37   ar
    37    37    38   ar
    38    38     3   ar
    39    36    10   ar
    40    34    14   ar
    41    33    19   ar
    42    32    25    1
