@<TRIPOS>MOLECULE
*****
 27 29 0 0 0
SMALL
GASTEIGER

@<TRIPOS>ATOM
      1 C          -4.4815    1.2960   -2.1190 C.3     1  UNL1        0.0060
      2 C          -4.6949    1.1717   -0.6209 C.3     1  UNL1        0.0370
      3 C          -3.6062    2.0052    0.0437 C.3     1  UNL1        0.0060
      4 C          -6.0244    1.7426   -0.1953 C.3     1  UNL1        0.0060
      5 C          -4.6003   -0.2383   -0.1622 C.ar    1  UNL1        0.0776
      6 C          -5.4227   -1.2836   -0.5660 C.ar    1  UNL1        0.0982
      7 C          -6.4978   -1.1325   -1.5026 C.2     1  UNL1        0.0445
      8 CA         -7.3209   -2.0487   -1.9395 C.ar    1  UNL1        0.1437
      9 N          -7.1496   -3.3071   -1.4389 N.ar    1  UNL1       -0.2016
     10 C          -7.9714   -4.2881   -1.8565 C.ar    1  UNL1        0.2971
     11 O          -7.8647   -5.4732   -1.4313 O.2     1  UNL1       -0.2635
     12 CA         -8.9773   -4.0570   -2.7723 C.ar    1  UNL1        0.1423
     13 C          -9.8009   -5.0054   -3.2006 C.2     1  UNL1        0.0264
     14 C         -10.8298   -4.7872   -4.1829 C.ar    1  UNL1        0.0314
     15 C         -10.4903   -4.4088   -5.4658 C.ar    1  UNL1        0.0319
     16 C         -11.5145   -4.2119   -6.3708 C.ar    1  UNL1        0.1403
     17 F         -11.2204   -3.8374   -7.6488 F       1  UNL1       -0.2042
     18 C         -12.8531   -4.3824   -6.0278 C.ar    1  UNL1        0.0319
     19 C         -13.1684   -4.7637   -4.7298 C.ar    1  UNL1        0.0319
     20 C         -12.1580   -4.9638   -3.8156 C.ar    1  UNL1        0.1403
     21 F         -12.4690   -5.3307   -2.5681 F       1  UNL1       -0.2042
     22 N          -9.1330   -2.8104   -3.2564 N.ar    1  UNL1       -0.2017
     23 C          -8.3306   -1.7998   -2.8636 C.ar    1  UNL1        0.2972
     24 O          -8.4632   -0.6308   -3.3062 O.2     1  UNL1       -0.2635
     25 N          -5.0233   -2.3827    0.0629 N.ar    1  UNL1       -0.2228
     26 C          -3.9759   -2.0542    0.8472 C.ar    1  UNL1        0.1986
     27 N          -3.7209   -0.7413    0.7061 N.ar    1  UNL1       -0.2269
@<TRIPOS>BOND
     1     1     2    1
     2     2     3    1
     3     2     4    1
     4     2     5    1
     5     5     6   ar
     6     6     7    1
     7     7     8    2
     8     8     9   ar
     9     9    10   ar
    10    10    11    2
    11    10    12   ar
    12    12    13    2
    13    13    14    1
    14    14    15   ar
    15    15    16   ar
    16    16    17    1
    17    16    18   ar
    18    18    19   ar
    19    19    20   ar
    20    20    21    1
    21    12    22   ar
    22    22    23   ar
    23    23    24    2
    24     6    25   ar
    25    25    26   ar
    26    26    27   ar
    27    27     5   ar
    28    23     8   ar
    29    20    14   ar
