@<TRIPOS>MOLECULE
*****
 34 38 0 0 0
SMALL
GASTEIGER

@<TRIPOS>ATOM
      1 C          -5.9181    3.8494   -1.0433 C.3     1  UNL1        0.0188
      2 C          -5.4327    3.6805    0.3803 C.3     1  UNL1        0.0724
      3 N          -4.7507    2.3884    0.5523 N.3     1  UNL1       -0.2690
      4 C          -5.7952    1.3852    0.2854 C.3     1  UNL1        0.0724
      5 C          -6.9721    1.5896    1.2453 C.3     1  UNL1        0.0188
      6 C          -4.4771    2.2587    1.9760 C.3     1  UNL1        0.0991
      7 C          -4.0277    0.8895    2.3206 C.ar    1  UNL1       -0.0061
      8 C          -3.0056    0.7922    3.2611 C.ar    1  UNL1       -0.0029
      9 C          -2.5405   -0.4566    3.6249 C.ar    1  UNL1        0.0013
     10 C          -3.0412   -1.6301    3.0989 C.ar    1  UNL1        0.0193
     11 C          -2.5183   -2.9270    3.5138 C.ar    1  UNL1        0.1035
     12 C          -2.4146   -3.3628    4.8247 C.ar    1  UNL1        0.1021
     13 C          -2.7848   -2.6638    6.0494 C.ar    1  UNL1        0.0192
     14 C          -3.9208   -1.8857    6.1602 C.ar    1  UNL1        0.0013
     15 C          -4.2155   -1.2438    7.3670 C.ar    1  UNL1       -0.0029
     16 C          -3.3591   -1.3927    8.4545 C.ar    1  UNL1       -0.0061
     17 C          -3.6197   -0.7338    9.7633 C.3     1  UNL1        0.0991
     18 N          -4.9128   -1.1486   10.2424 N.3     1  UNL1       -0.2690
     19 C          -5.2974   -0.4844   11.4693 C.3     1  UNL1        0.0724
     20 C          -6.7756   -0.1834   11.3529 C.3     1  UNL1        0.0187
     21 C          -7.0614   -0.1723    9.8673 C.3     1  UNL1        0.0174
     22 C          -7.1270    1.2473    9.3253 C.3     1  UNL1        0.0015
     23 C          -5.9280   -0.9283    9.2611 C.3     1  UNL1        0.0724
     24 C          -2.2300   -2.1636    8.3511 C.ar    1  UNL1       -0.0029
     25 C          -1.9614   -2.7872    7.1482 C.ar    1  UNL1        0.0013
     26 N          -1.8893   -4.5996    4.7877 N.ar    1  UNL1       -0.2084
     27 C          -1.6548   -4.9682    3.5134 C.ar    1  UNL1        0.2532
     28 N          -1.1442   -6.0956    2.9702 N.ar    1  UNL1       -0.2067
     29 C          -1.0086   -6.2218    1.6407 C.ar    1  UNL1        0.1245
     30 C          -1.4095   -5.1595    0.8548 C.ar    1  UNL1        0.1413
     31 N          -1.9148   -4.0478    1.4196 N.ar    1  UNL1       -0.1593
     32 N          -2.0460   -3.9320    2.7488 N.ar    1  UNL1       -0.1949
     33 C          -4.0556   -1.5020    2.1671 C.ar    1  UNL1        0.0013
     34 C          -4.5384   -0.2557    1.7868 C.ar    1  UNL1       -0.0029
@<TRIPOS>BOND
     1     1     2    1
     2     2     3    1
     3     3     4    1
     4     4     5    1
     5     3     6    1
     6     6     7    1
     7     7     8   ar
     8     8     9   ar
     9     9    10   ar
    10    10    11    1
    11    11    12   ar
    12    12    13    1
    13    13    14   ar
    14    14    15   ar
    15    15    16   ar
    16    16    17    1
    17    17    18    1
    18    18    19    1
    19    19    20    1
    20    20    21    1
    21    21    22    1
    22    21    23    1
    23    16    24   ar
    24    24    25   ar
    25    12    26   ar
    26    26    27   ar
    27    27    28   ar
    28    28    29   ar
    29    29    30   ar
    30    30    31   ar
    31    31    32   ar
    32    10    33   ar
    33    33    34   ar
    34    34     7   ar
    35    32    11   ar
    36    25    13   ar
    37    32    27   ar
    38    23    18    1
