@<TRIPOS>MOLECULE
*****
 38 42 0 0 0
SMALL
GASTEIGER

@<TRIPOS>ATOM
      1 C          10.0031    2.5973   -1.1881 C.3     1  UNL1        0.0252
      2 C          10.2402    2.3132    0.2815 C.3     1  UNL1        0.1152
      3 N           9.6537    0.9869    0.5395 N.am    1  UNL1       -0.2054
      4 C          10.1042    0.3187    1.7178 C.2     1  UNL1        0.2414
      5 O          11.0263    0.9044    2.3609 O.2     1  UNL1       -0.2733
      6 C           9.5498   -0.9699    2.1846 C.3     1  UNL1        0.0869
      7 C           9.6163   -2.0109    1.1504 C.3     1  UNL1        0.0125
      8 C           8.9006   -3.2833    1.3664 C.3     1  UNL1        0.0221
      9 C           8.4785   -3.9231    0.0193 C.3     1  UNL1        0.0936
     10 N           9.7075   -3.8966   -0.7662 N.pl3   1  UNL1       -0.2782
     11 C          10.3595   -5.1113   -1.1805 C.ar    1  UNL1        0.2213
     12 N           9.8061   -6.2988   -1.0097 N.ar    1  UNL1       -0.1969
     13 C          10.4980   -7.4080   -1.4248 C.ar    1  UNL1        0.1561
     14 N           9.8825   -8.6329   -1.2129 N.pl3   1  UNL1       -0.1940
     15 C          10.4474   -9.8968   -1.1974 C.ar    1  UNL1        0.0722
     16 C           9.6122  -10.9981   -1.1457 C.ar    1  UNL1        0.0178
     17 C          10.1556  -12.2717   -1.1807 C.ar    1  UNL1        0.0159
     18 C          11.5130  -12.5097   -1.2652 C.ar    1  UNL1        0.0480
     19 N          12.0581  -13.8416   -1.2865 N.pl3   1  UNL1       -0.3046
     20 C          13.4159  -14.0573   -1.7865 C.3     1  UNL1        0.1081
     21 C          14.0297  -15.1984   -1.0000 C.3     1  UNL1        0.0938
     22 N          13.3893  -15.4057    0.2588 N.3     1  UNL1       -0.2686
     23 C          13.6974  -14.3886    1.2459 C.3     1  UNL1        0.0897
     24 C          12.0070  -15.7500    0.1712 C.3     1  UNL1        0.0938
     25 C          11.2201  -14.9155   -0.8027 C.3     1  UNL1        0.1081
     26 C          12.3283  -11.3995   -1.3150 C.ar    1  UNL1        0.0159
     27 C          11.8306  -10.1235   -1.2839 C.ar    1  UNL1        0.0178
     28 C          11.7480   -7.2210   -2.0024 C.ar    1  UNL1        0.0542
     29 C          12.5002   -8.2967   -2.4198 C.ar    1  UNL1        0.0412
     30 C          13.7374   -8.1295   -2.9692 C.ar    1  UNL1        0.1389
     31 O          14.4957   -9.2184   -3.3879 O.3     1  UNL1       -0.4714
     32 C          15.7912   -9.0098   -3.9453 C.3     1  UNL1        0.2525
     33 C          14.3240   -6.8848   -3.1486 C.ar    1  UNL1        0.0384
     34 C          13.5682   -5.7787   -2.7284 C.ar    1  UNL1        0.0224
     35 C          12.3135   -5.9747   -2.1725 C.ar    1  UNL1        0.0871
     36 N          11.5899   -4.9235   -1.7479 N.ar    1  UNL1       -0.2135
     37 C          10.3194   -2.6135   -1.1721 C.3     1  UNL1        0.0936
     38 C           9.7268   -1.5637   -0.2678 C.3     1  UNL1        0.0221
@<TRIPOS>BOND
     1     1     2    1
     2     2     3    1
     3     3     4   am
     4     4     5    2
     5     4     6    1
     6     6     7    1
     7     7     8    1
     8     8     9    1
     9     9    10    1
    10    10    11    1
    11    11    12   ar
    12    12    13   ar
    13    13    14    1
    14    14    15    1
    15    15    16   ar
    16    16    17   ar
    17    17    18   ar
    18    18    19    1
    19    19    20    1
    20    20    21    1
    21    21    22    1
    22    22    23    1
    23    22    24    1
    24    24    25    1
    25    18    26   ar
    26    26    27   ar
    27    13    28   ar
    28    28    29   ar
    29    29    30   ar
    30    30    31    1
    31    31    32    1
    32    30    33   ar
    33    33    34   ar
    34    34    35   ar
    35    35    36   ar
    36    10    37    1
    37    37    38    1
    38    38     7    1
    39    36    11   ar
    40    27    15   ar
    41    35    28   ar
    42    25    19    1
