@<TRIPOS>MOLECULE
*****
 30 32 0 0 0
SMALL
GASTEIGER

@<TRIPOS>ATOM
      1 C           7.9210   -1.6493    2.4144 C.3     1  UNL1        0.1388
      2 N           6.9377   -1.0884    1.4887 N.am    1  UNL1       -0.1998
      3 C           7.0383    0.3091    1.2239 C.2     1  UNL1        0.2649
      4 O           7.8788    0.9864    1.8735 O.2     1  UNL1       -0.2684
      5 C           6.2039    0.9766    0.2304 C.ar    1  UNL1        0.0563
      6 C           6.6976    2.1357   -0.3339 C.ar    1  UNL1        0.0046
      7 C           5.9280    2.7774   -1.2696 C.ar    1  UNL1        0.0015
      8 C           4.6962    2.2582   -1.6206 C.ar    1  UNL1        0.0167
      9 C           4.1796    1.1018   -1.0720 C.ar    1  UNL1        0.0751
     10 N           2.9111    0.5670   -1.4334 N.am    1  UNL1       -0.1606
     11 C           2.1468    1.2170   -2.4584 C.2     1  UNL1        0.3491
     12 O           2.5573    2.2402   -3.0627 O.2     1  UNL1       -0.2484
     13 N           0.8971    0.6693   -2.7793 N.am    1  UNL1       -0.1419
     14 C           0.0833    1.2204   -3.8075 C.ar    1  UNL1        0.1561
     15 C           0.5847    2.3472   -4.4601 C.ar    1  UNL1        0.0363
     16 C          -0.1030    2.9801   -5.4756 C.ar    1  UNL1        0.0045
     17 C          -1.3358    2.4257   -5.8148 C.ar    1  UNL1        0.0190
     18 C          -2.0741    3.0710   -6.8752 C.ar    1  UNL1       -0.0012
     19 C          -1.8479    2.6513   -8.1736 C.ar    1  UNL1       -0.0217
     20 C          -0.8669    1.5646   -8.4413 C.3     1  UNL1        0.0310
     21 C          -2.5327    3.2386   -9.2396 C.ar    1  UNL1       -0.0030
     22 C          -3.4598    4.2613   -9.0188 C.ar    1  UNL1        0.0142
     23 C          -3.6833    4.6779   -7.7212 C.ar    1  UNL1        0.0479
     24 N          -4.6094    5.7140   -7.3947 N.pl3   1  UNL1       -0.3041
     25 C          -5.2274    6.5424   -8.4114 C.3     1  UNL1        0.1122
     26 C          -4.9199    5.9175   -5.9901 C.3     1  UNL1        0.1122
     27 C          -2.9932    4.0816   -6.6795 C.ar    1  UNL1        0.0143
     28 C          -1.8140    1.2959   -5.1441 C.ar    1  UNL1        0.1003
     29 N          -1.1143    0.6962   -4.1496 N.ar    1  UNL1       -0.2272
     30 C           4.9771    0.4639   -0.1225 C.ar    1  UNL1        0.0212
@<TRIPOS>BOND
     1     1     2    1
     2     2     3   am
     3     3     4    2
     4     3     5    1
     5     5     6   ar
     6     6     7   ar
     7     7     8   ar
     8     8     9   ar
     9     9    10    1
    10    10    11   am
    11    11    12    2
    12    11    13   am
    13    13    14    1
    14    14    15   ar
    15    15    16   ar
    16    16    17   ar
    17    17    18    1
    18    18    19   ar
    19    19    20    1
    20    19    21   ar
    21    21    22   ar
    22    22    23   ar
    23    23    24    1
    24    24    25    1
    25    24    26    1
    26    23    27   ar
    27    17    28   ar
    28    28    29   ar
    29     9    30   ar
    30    30     5   ar
    31    29    14   ar
    32    27    18   ar
