@<TRIPOS>MOLECULE
*****
 34 37 0 0 0
SMALL
GASTEIGER

@<TRIPOS>ATOM
      1 C          -8.9333    1.3900    0.2486 C.3     1  UNL1        0.1123
      2 N          -8.0805    1.1084   -0.8964 N.pl3   1  UNL1       -0.3028
      3 C          -8.6127    1.3821   -2.2336 C.3     1  UNL1        0.1123
      4 C          -6.7819    0.5862   -0.6845 C.ar    1  UNL1        0.0677
      5 C          -6.2714    0.3747    0.5940 C.ar    1  UNL1        0.0161
      6 C          -4.9974   -0.1372    0.7416 C.ar    1  UNL1        0.0015
      7 C          -4.1997   -0.4515   -0.3433 C.ar    1  UNL1        0.0045
      8 C          -2.8799   -0.9771   -0.0903 C.ar    1  UNL1        0.0002
      9 C          -1.7457   -0.2430    0.0752 C.ar    1  UNL1        0.0013
     10 C          -0.5471   -0.8807    0.3120 C.ar    1  UNL1        0.0167
     11 C          -0.4215   -2.2528    0.3941 C.ar    1  UNL1        0.0750
     12 N           0.8588   -2.8434    0.6431 N.am    1  UNL1       -0.1607
     13 C           1.0700   -4.2188    0.5100 C.2     1  UNL1        0.3477
     14 O           0.1260   -4.9415    0.0997 O.2     1  UNL1       -0.2484
     15 N           2.2953   -4.8861    0.8075 N.am    1  UNL1       -0.1607
     16 C           2.4298   -6.3018    0.5758 C.ar    1  UNL1        0.0752
     17 C           1.5268   -6.9922   -0.1874 C.ar    1  UNL1        0.0198
     18 C           1.7049   -8.3666   -0.3806 C.ar    1  UNL1        0.0385
     19 C           2.7925   -9.0249    0.1997 C.ar    1  UNL1        0.1469
     20 O           2.9012  -10.3855   -0.0368 O.3     1  UNL1       -0.4045
     21 C           1.9855  -11.0947   -0.8567 C.3     1  UNL1        0.5753
     22 F           2.3559  -12.4328   -0.9683 F       1  UNL1       -0.1328
     23 F           0.6921  -10.9872   -0.3801 F       1  UNL1       -0.1328
     24 F           1.9602  -10.5781   -2.1574 F       1  UNL1       -0.1328
     25 C           3.7024   -8.3173    0.9715 C.ar    1  UNL1        0.0385
     26 C           3.5017   -6.9468    1.1486 C.ar    1  UNL1        0.0198
     27 C          -1.5670   -2.9941    0.2270 C.ar    1  UNL1        0.0167
     28 C          -2.7738   -2.3723   -0.0106 C.ar    1  UNL1        0.0013
     29 C          -4.7302   -0.2323   -1.5961 C.ar    1  UNL1        0.0572
     30 C          -4.2239   -0.4307   -2.8402 C.ar    1  UNL1        0.1925
     31 N          -2.9564   -0.9406   -3.1620 N.pl3   1  UNL1       -0.1053
     32 N          -5.1421   -0.0583   -3.7608 N.ar    1  UNL1       -0.1295
     33 N          -6.1863    0.3583   -3.0956 N.ar    1  UNL1       -0.1453
     34 C          -6.0036    0.2796   -1.7764 C.ar    1  UNL1        0.1189
@<TRIPOS>BOND
     1     1     2    1
     2     2     3    1
     3     2     4    1
     4     4     5   ar
     5     5     6   ar
     6     6     7   ar
     7     7     8    1
     8     8     9   ar
     9     9    10   ar
    10    10    11   ar
    11    11    12    1
    12    12    13   am
    13    13    14    2
    14    13    15   am
    15    15    16    1
    16    16    17   ar
    17    17    18   ar
    18    18    19   ar
    19    19    20    1
    20    20    21    1
    21    21    22    1
    22    21    23    1
    23    21    24    1
    24    19    25   ar
    25    25    26   ar
    26    11    27   ar
    27    27    28   ar
    28     7    29   ar
    29    29    30   ar
    30    30    31    1
    31    30    32   ar
    32    32    33   ar
    33    33    34   ar
    34    34     4   ar
    35    28     8   ar
    36    34    29   ar
    37    26    16   ar
